*SPEF "ieee 1481-1999"
*DESIGN "alu"
*DATE "11:11:11 Fri 11 11, 1111"
*VENDOR "The OpenROAD Project"
*PROGRAM "OpenROAD"
*VERSION "1.0"
*DESIGN_FLOW "NAME_SCOPE LOCAL" "PIN_CAP NONE"
*DIVIDER /
*DELIMITER :
*BUS_DELIMITER []
*T_UNIT 1 NS
*C_UNIT 1 FF
*R_UNIT 1 KOHM
*L_UNIT 1 HENRY

*PORTS
a[0] I
a[1] I
a[2] I
a[3] I
a[4] I
a[5] I
a[6] I
a[7] I
b[0] I
b[1] I
b[2] I
b[3] I
b[4] I
b[5] I
b[6] I
b[7] I
clk I
opcode[0] I
opcode[1] I
opcode[2] I
opcode[3] I
overflow_flag O
result[0] O
result[1] O
result[2] O
result[3] O
result[4] O
result[5] O
result[6] O
result[7] O
rst_n I
zero_flag O

*D_NET clknet_0_clk 1.72306
*CONN
*I clkbuf_0_clk:Z O *D CLKBUF_X3
*I clkbuf_1_0__f_clk:A I *D CLKBUF_X3
*I clkbuf_1_1__f_clk:A I *D CLKBUF_X3
*CAP
1 clknet_0_clk:1 0.0337303
2 clknet_0_clk:2 0
3 clknet_0_clk:3 0
4 clknet_0_clk:4 0
5 clknet_0_clk:5 0.535731
6 clknet_0_clk:6 0.321439
7 clknet_0_clk:7 0
8 clknet_0_clk:8 0
9 clknet_0_clk:9 0
10 clknet_0_clk:10 0.0357541
11 clknet_0_clk:11 0.214292
12 clknet_0_clk:12 0.228824
13 clknet_0_clk:13 0.228824
14 clknet_0_clk:14 0
15 clknet_0_clk:15 0
16 clknet_0_clk:16 0.0274902
*RES
1 clknet_0_clk:1 clknet_0_clk:2 0.005
2 clknet_0_clk:2 clknet_0_clk:3 0.005
3 clknet_0_clk:3 clknet_0_clk:4 0.003
4 clknet_0_clk:4 clknet_0_clk:5 0.003
5 clknet_0_clk:5 clknet_0_clk:6 0.00945
6 clknet_0_clk:6 clknet_0_clk:7 0.003
7 clknet_0_clk:7 clknet_0_clk:8 0.003
8 clknet_0_clk:8 clknet_0_clk:9 0.005
9 clknet_0_clk:9 clknet_0_clk:10 0.005
10 clknet_0_clk:11 clknet_0_clk:5 0.0063
11 clknet_0_clk:11 clknet_0_clk:12 0.003
12 clknet_0_clk:12 clknet_0_clk:13 0.0063
13 clknet_0_clk:13 clknet_0_clk:14 0.003
14 clknet_0_clk:14 clknet_0_clk:15 0.005
15 clknet_0_clk:15 clknet_0_clk:16 0.005
16 clkbuf_1_1__f_clk:A clknet_0_clk:10 0.00878568
17 clkbuf_1_0__f_clk:A clknet_0_clk:16 0.00791069
18 clkbuf_0_clk:Z clknet_0_clk:1 0.0085714
*END

*D_NET _001_ 0.85978
*CONN
*I _341_:ZN O *D AOI21_X1
*I hold79:A I *D CLKBUF_X1
*CAP
1 _001_:1 0.0269842
2 _001_:2 0.279959
3 _001_:3 0.279959
4 _001_:4 0.0708336
5 _001_:5 0.122947
*RES
1 _001_:1 _001_:2 0.005
2 _001_:2 _001_:3 0.0224998
3 _001_:3 _001_:4 0.005
4 _001_:4 _001_:5 0.00749994
5 _341_:ZN _001_:1 0.00785712
6 hold79:A _001_:5 0.0105178
*END

*D_NET _002_ 0.1501
*CONN
*I _366_:ZN O *D AOI21_X1
*I hold73:A I *D CLKBUF_X1
*CAP
1 _002_:1 0.0750499
*RES
1 _366_:ZN _002_:1 0.00782141
2 hold73:A _002_:1 0.010125
*END

*D_NET _003_ 0.224306
*CONN
*I _382_:ZN O *D AND2_X1
*I hold83:A I *D CLKBUF_X1
*CAP
1 _003_:1 0.105239
2 _003_:2 0.0777483
*RES
1 _003_:1 _003_:2 0.00749994
2 _382_:ZN _003_:1 0.00864283
3 hold83:A _003_:2 0.00573214
*END

*D_NET _004_ 0.200021
*CONN
*I _398_:Z O *D MUX2_X1
*I hold113:A I *D CLKBUF_X1
*CAP
1 _004_:1 0.10001
*RES
1 _398_:Z _004_:1 0.00992853
2 hold113:A _004_:1 0.0106607
*END

*D_NET _005_ 0.268267
*CONN
*I _415_:Z O *D MUX2_X1
*I _471_:D I *D DFF_X2
*CAP
1 _005_:1 0.0199009
2 _005_:2 0.0933196
3 _005_:3 0.0933196
4 _005_:4 0.0209128
*RES
1 _005_:1 _005_:2 0.005
2 _005_:2 _005_:3 0.00749994
3 _005_:3 _005_:4 0.005
4 _471_:D _005_:4 0.00721427
5 _415_:Z _005_:1 0.00710713
*END

*D_NET _006_ 0.368446
*CONN
*I _431_:ZN O *D AOI21_X1
*I hold97:A I *D CLKBUF_X1
*CAP
1 _006_:1 0.0337303
2 _006_:2 0.0933196
3 _006_:3 0.0933196
4 _006_:4 0.0571729
*RES
1 _006_:1 _006_:2 0.005
2 _006_:2 _006_:3 0.00749994
3 _006_:3 _006_:4 0.005
4 _431_:ZN _006_:1 0.0085714
5 hold97:A _006_:4 0.0110535
*END

*D_NET _007_ 0.313017
*CONN
*I _446_:ZN O *D AOI21_X1
*I hold103:A I *D CLKBUF_X1
*CAP
1 _007_:1 0.130199
2 _007_:2 0.0971433
*RES
1 _007_:1 _007_:2 0.00749994
2 _446_:ZN _007_:1 0.0112857
3 hold103:A _007_:2 0.00778569
*END

*D_NET _008_ 0.490887
*CONN
*I _460_:Z O *D MUX2_X1
*I _474_:D I *D DFF_X2
*CAP
1 _008_:1 0.0458732
2 _008_:2 0.0933196
3 _008_:3 0.0933196
4 _008_:4 0.0708336
5 _008_:5 0.10625
*RES
1 _008_:1 _008_:2 0.005
2 _008_:2 _008_:3 0.00749994
3 _008_:3 _008_:4 0.005
4 _008_:5 _008_:4 0.00749994
5 _474_:D _008_:5 0.00874997
6 _460_:Z _008_:1 0.0098571
*END

*D_NET _009_ 0.332017
*CONN
*I _463_:ZN O *D OAI22_X1
*I hold90:A I *D CLKBUF_X1
*CAP
1 _009_:1 0.0586907
2 _009_:2 0.0933196
3 _009_:3 0.0933196
4 _009_:4 0.0139981
*RES
1 _009_:1 _009_:2 0.005
2 _009_:2 _009_:3 0.00749994
3 _009_:3 _009_:4 0.005
4 _463_:ZN _009_:1 0.0112142
5 hold90:A _009_:4 0.00648213
*END

*D_NET _010_ 0.395656
*CONN
*I _466_:ZN O *D AND2_X1
*I hold68:A I *D CLKBUF_X1
*CAP
1 _010_:1 0.166965
2 _010_:2 0.17253
*RES
1 _010_:1 _010_:2 0.0149999
2 _466_:ZN _010_:1 0.00767855
3 hold68:A _010_:2 0.00826783
*END

*D_NET _011_ 0.344834
*CONN
*I _306_:ZN O *D NAND3_X1
*I _307_:B1 I *D OAI21_X1
*CAP
1 _011_:1 0.0376093
2 _011_:2 0.0933196
3 _011_:3 0.0933196
4 _011_:4 0.0414883
*RES
1 _011_:1 _011_:2 0.005
2 _011_:2 _011_:3 0.00749994
3 _011_:3 _011_:4 0.005
4 _307_:B1 _011_:4 0.00939282
5 _306_:ZN _011_:1 0.00898211
*END

*D_NET _012_ 0.444001
*CONN
*I _307_:ZN O *D OAI21_X1
*I _308_:A I *D INV_X1
*CAP
1 _012_:1 0.032887
2 _012_:2 0.0933196
3 _012_:3 0.0933196
4 _012_:4 0.0708336
5 _012_:5 0.0957941
*RES
1 _012_:1 _012_:2 0.005
2 _012_:2 _012_:3 0.00749994
3 _012_:3 _012_:4 0.005
4 _012_:5 _012_:4 0.00749994
5 _308_:A _012_:5 0.00764284
6 _307_:ZN _012_:1 0.00848211
*END

*D_NET _013_ 0.423763
*CONN
*I _308_:ZN O *D INV_X1
*I _340_:C2 I *D AOI211_X2
*CAP
1 _013_:1 0.0850004
2 _013_:2 0.0708336
3 _013_:3 0.0933196
4 _013_:4 0.0933196
5 _013_:5 0.0335617
*RES
1 _013_:1 _013_:2 0.00749994
2 _013_:2 _013_:3 0.005
3 _013_:3 _013_:4 0.00749994
4 _013_:4 _013_:5 0.005
5 _340_:C2 _013_:5 0.00855354
6 _308_:ZN _013_:1 0.00649999
*END

*D_NET _014_ 2.8628
*CONN
*I _309_:ZN O *D OR2_X4
*I _310_:A2 I *D NOR2_X2
*I _314_:A2 I *D NOR2_X4
*I _317_:A1 I *D OR2_X2
*I _342_:B I *D AOI211_X1
*I _352_:A3 I *D NOR3_X1
*I _421_:B I *D AOI211_X2
*CAP
1 _014_:1 0.101022
2 _014_:2 0.279959
3 _014_:3 0.279959
4 _014_:4 0.0708336
5 _014_:5 0.106419
6 _014_:6 0.0708336
7 _014_:7 0.0933196
8 _014_:8 0.613723
9 _014_:9 0.633118
10 _014_:10 0.122272
11 _014_:11 0.0933196
12 _014_:12 0.0482343
*RES
1 _014_:1 _014_:2 0.005
2 _014_:2 _014_:3 0.0149999
3 _014_:3 _014_:4 0.005
4 _014_:5 _014_:6 0.00749994
5 _014_:6 _014_:7 0.005
6 _014_:7 _014_:2 0.00749994
7 _014_:8 _014_:9 0.0524996
8 _014_:10 _014_:8 0.00749994
9 _014_:3 _014_:11 0.00749994
10 _014_:11 _014_:12 0.005
11 _014_:9 _014_:4 0.00749994
12 _421_:B _014_:10 0.0104464
13 _352_:A3 _014_:1 0.00778569
14 _342_:B _014_:5 0.00876783
15 _317_:A1 _014_:9 0.0120357
16 _314_:A2 _014_:8 0.0099821
17 _310_:A2 _014_:12 0.0101071
18 _309_:ZN _014_:1 0.0129107
*END

*D_NET _015_ 0.880245
*CONN
*I _310_:ZN O *D NOR2_X2
*I _313_:C1 I *D OAI211_X1
*I _349_:A2 I *D NAND2_X2
*I _353_:A2 I *D NAND2_X2
*I _368_:A3 I *D NAND4_X1
*I _370_:B I *D OAI211_X1
*CAP
1 _015_:1 0.125645
2 _015_:2 0.124971
3 _015_:3 0.0266469
4 _015_:4 0.186639
5 _015_:5 0.0933196
6 _015_:6 0.0470538
7 _015_:7 0.0933196
*RES
1 _015_:2 _015_:1 0.00749994
2 _015_:3 _015_:4 0.005
3 _015_:4 _015_:5 0.00749994
4 _015_:5 _015_:6 0.005
5 _015_:2 _015_:7 0.005
6 _015_:7 _015_:4 0.00749994
7 _370_:B _015_:2 0.00769641
8 _368_:A3 _015_:2 0.00803569
9 _353_:A2 _015_:6 0.00649999
10 _349_:A2 _015_:3 0.00782141
11 _313_:C1 _015_:6 0.00848211
12 _310_:ZN _015_:1 0.0108035
*END

*D_NET _016_ 0.45401
*CONN
*I _311_:ZN O *D NOR2_X2
*I _335_:A2 I *D NAND2_X1
*I _337_:A3 I *D NAND3_X4
*CAP
1 _016_:1 0.118562
2 _016_:2 0.179277
*RES
1 _016_:2 _016_:1 0.00749994
2 _337_:A3 _016_:2 0.0121964
3 _335_:A2 _016_:2 0.00928568
4 _311_:ZN _016_:1 0.0100535
*END

*D_NET _017_ 3.06574
*CONN
*I _312_:ZN O *D NOR3_X4
*I _313_:C2 I *D OAI211_X1
*I _343_:B1 I *D AOI221_X1
*I _380_:C2 I *D AOI221_X2
*I _395_:A2 I *D AOI22_X1
*I _409_:C2 I *D AOI211_X1
*I _422_:B1 I *D AOI221_X2
*I _439_:B1 I *D AOI21_X1
*I _458_:C2 I *D AOI211_X2
*CAP
1 _017_:1 0.200189
2 _017_:2 0.26259
3 _017_:3 0.141667
4 _017_:4 0.186639
5 _017_:5 0.0933196
6 _017_:6 0.0860123
7 _017_:7 0.0401391
8 _017_:8 0.0933196
9 _017_:9 0.321956
10 _017_:10 0.212501
11 _017_:11 0.0362601
12 _017_:12 0.0933196
13 _017_:13 0.279959
14 _017_:14 0.0708336
15 _017_:15 0.279959
16 _017_:16 0.0933196
17 _017_:17 0.0382839
18 _017_:18 0.129187
*RES
1 _017_:2 _017_:1 0.00749994
2 _017_:3 _017_:4 0.005
3 _017_:4 _017_:5 0.00749994
4 _017_:5 _017_:6 0.005
5 _017_:7 _017_:8 0.005
6 _017_:8 _017_:4 0.00749994
7 _017_:1 _017_:9 0.00749994
8 _017_:9 _017_:10 0.0224998
9 _017_:11 _017_:12 0.005
10 _017_:12 _017_:13 0.00749994
11 _017_:13 _017_:14 0.005
12 _017_:10 _017_:15 0.005
13 _017_:15 _017_:16 0.00749994
14 _017_:16 _017_:17 0.005
15 _017_:13 _017_:15 0.0149999
16 _017_:3 _017_:2 0.0149999
17 _017_:14 _017_:18 0.00749994
18 _458_:C2 _017_:2 0.0103035
19 _439_:B1 _017_:6 0.0109464
20 _422_:B1 _017_:7 0.00924997
21 _409_:C2 _017_:6 0.00816069
22 _395_:A2 _017_:1 0.0111964
23 _380_:C2 _017_:9 0.00908925
24 _343_:B1 _017_:11 0.00883926
25 _313_:C2 _017_:17 0.00905354
26 _312_:ZN _017_:18 0.0111785
*END

*D_NET _018_ 0.121429
*CONN
*I _313_:ZN O *D OAI211_X1
*I hold76:A I *D CLKBUF_X1
*CAP
1 _018_:1 0.0607145
*RES
1 _313_:ZN _018_:1 0.00808926
2 hold76:A _018_:1 0.00833926
*END

*D_NET _019_ 3.18255
*CONN
*I _314_:ZN O *D NOR2_X4
*I _315_:A2 I *D NAND2_X1
*I _378_:C1 I *D AOI221_X1
*I _395_:B1 I *D AOI22_X1
*I _407_:A I *D OAI21_X1
*I _443_:C2 I *D AOI221_X2
*I _455_:A I *D OAI21_X1
*CAP
1 _019_:1 0.141667
2 _019_:2 0.373278
3 _019_:3 0.0933196
4 _019_:4 0.141667
5 _019_:5 0.19884
6 _019_:6 0.0249604
7 _019_:7 0.0933196
8 _019_:8 0.279959
9 _019_:9 0.255507
10 _019_:10 0.186639
11 _019_:11 0.032887
12 _019_:12 0.17388
13 _019_:13 0.279959
14 _019_:14 0.396668
15 _019_:15 0.209465
*RES
1 _019_:1 _019_:2 0.005
2 _019_:2 _019_:3 0.00749994
3 _019_:3 _019_:4 0.005
4 _019_:5 _019_:4 0.0149999
5 _019_:6 _019_:7 0.005
6 _019_:7 _019_:8 0.00749994
7 _019_:8 _019_:9 0.005
8 _019_:8 _019_:10 0.0149999
9 _019_:10 _019_:11 0.005
10 _019_:12 _019_:13 0.005
11 _019_:13 _019_:2 0.0224998
12 _019_:14 _019_:12 0.0149999
13 _019_:9 _019_:14 0.0224998
14 _019_:1 _019_:15 0.0149999
15 _455_:A _019_:5 0.0110535
16 _443_:C2 _019_:9 0.00955354
17 _407_:A _019_:11 0.00848211
18 _395_:B1 _019_:14 0.00949996
19 _378_:C1 _019_:12 0.00841069
20 _315_:A2 _019_:15 0.0121785
21 _314_:ZN _019_:6 0.00764284
*END

*D_NET _020_ 0.479418
*CONN
*I _315_:ZN O *D NAND2_X1
*I _319_:B I *D OAI211_X1
*CAP
1 _020_:1 0.0664487
2 _020_:2 0.0933196
3 _020_:3 0.0933196
4 _020_:4 0.0799408
*RES
1 _020_:1 _020_:2 0.005
2 _020_:2 _020_:3 0.00749994
3 _020_:3 _020_:4 0.005
4 _319_:B _020_:1 0.0120357
5 _315_:ZN _020_:4 0.0134642
*END

*D_NET _021_ 1.20035
*CONN
*I _316_:ZN O *D NAND2_X2
*I _317_:A2 I *D OR2_X2
*I _324_:A3 I *D NOR3_X4
*I _325_:A3 I *D OR3_X2
*I _327_:A3 I *D NOR3_X1
*I _328_:A3 I *D OR3_X1
*CAP
1 _021_:1 0.0907345
2 _021_:2 0.0966373
3 _021_:3 0.0933196
4 _021_:4 0.186639
5 _021_:5 0.0425002
6 _021_:6 0.0933196
7 _021_:7 0.159544
8 _021_:8 0.236618
*RES
1 _021_:1 _021_:2 0.00749994
2 _021_:1 _021_:3 0.005
3 _021_:3 _021_:4 0.00749994
4 _021_:4 _021_:5 0.005
5 _021_:4 _021_:6 0.00749994
6 _021_:6 _021_:7 0.005
7 _021_:7 _021_:8 0.0149999
8 _328_:A3 _021_:1 0.00710713
9 _327_:A3 _021_:2 0.00773212
10 _325_:A3 _021_:5 0.00949996
11 _324_:A3 _021_:7 0.00689284
12 _317_:A2 _021_:8 0.0113571
13 _316_:ZN _021_:8 0.0086964
*END

*D_NET _022_ 3.28881
*CONN
*I _317_:ZN O *D OR2_X2
*I _318_:A I *D INV_X1
*I _319_:C1 I *D OAI211_X1
*I _379_:C1 I *D OAI211_X1
*I _408_:B1 I *D OAI21_X1
*I _438_:A2 I *D NOR2_X1
*I _456_:B1 I *D OAI21_X1
*CAP
1 _022_:1 0.160894
2 _022_:2 0.212501
3 _022_:3 0.263096
4 _022_:4 0.495835
5 _022_:5 0.279959
6 _022_:6 0.373278
7 _022_:7 0.336628
8 _022_:8 0.31892
9 _022_:9 0.334436
10 _022_:10 0.0933196
11 _022_:11 0.0696531
*RES
1 _022_:1 _022_:2 0.0149999
2 _022_:3 _022_:4 0.0224998
3 _022_:2 _022_:5 0.005
4 _022_:5 _022_:6 0.0224998
5 _022_:6 _022_:4 0.005
6 _022_:4 _022_:7 0.0299998
7 _022_:8 _022_:9 0.0224998
8 _022_:6 _022_:10 0.00749994
9 _022_:10 _022_:11 0.005
10 _022_:2 _022_:8 0.00749994
11 _456_:B1 _022_:11 0.0123749
12 _438_:A2 _022_:1 0.0070357
13 _408_:B1 _022_:3 0.0103571
14 _379_:C1 _022_:8 0.00876783
15 _319_:C1 _022_:7 0.0106428
16 _318_:A _022_:9 0.0108928
17 _317_:ZN _022_:9 0.0120178
*END

*D_NET _023_ 1.74037
*CONN
*I _318_:ZN O *D INV_X1
*I _343_:C2 I *D AOI221_X1
*I _394_:C1 I *D AOI221_X1
*I _422_:C2 I *D AOI221_X2
*CAP
1 _023_:1 0.536818
2 _023_:2 0.255844
3 _023_:3 0.363275
4 _023_:4 0.0234426
5 _023_:5 0.186639
6 _023_:6 0.186639
*RES
1 _023_:2 _023_:1 0.0224998
2 _023_:1 _023_:3 0.0299998
3 _023_:4 _023_:5 0.005
4 _023_:5 _023_:6 0.0149999
5 _023_:6 _023_:3 0.005
6 _422_:C2 _023_:2 0.00958925
7 _394_:C1 _023_:1 0.00933925
8 _343_:C2 _023_:4 0.00748212
9 _318_:ZN _023_:3 0.0134642
*END

*D_NET _024_ 0.537434
*CONN
*I _319_:ZN O *D OAI211_X1
*I hold77:A I *D CLKBUF_X1
*CAP
1 _024_:1 0.126826
2 _024_:2 0.0708336
3 _024_:3 0.0933196
4 _024_:4 0.0933196
5 _024_:5 0.0485716
*RES
1 _024_:1 _024_:2 0.00749994
2 _024_:2 _024_:3 0.005
3 _024_:3 _024_:4 0.00749994
4 _024_:4 _024_:5 0.005
5 _319_:ZN _024_:1 0.0109285
6 hold77:A _024_:5 0.0101428
*END

*D_NET _025_ 0.379577
*CONN
*I _320_:ZN O *D AOI211_X1
*I _326_:A I *D AOI211_X1
*CAP
1 _025_:1 0.0354168
2 _025_:2 0.0933196
3 _025_:3 0.0933196
4 _025_:4 0.0610518
*RES
1 _025_:1 _025_:2 0.005
2 _025_:2 _025_:3 0.00749994
3 _025_:3 _025_:4 0.005
4 _326_:A _025_:4 0.0114642
5 _320_:ZN _025_:1 0.00874997
*END

*D_NET _026_ 0.199683
*CONN
*I _321_:ZN O *D AND2_X1
*I _323_:A1 I *D NOR2_X1
*I _373_:A I *D AOI21_X2
*CAP
1 _026_:1 0.0998417
*RES
1 _373_:A _026_:1 0.00730355
2 _323_:A1 _026_:1 0.0102321
3 _321_:ZN _026_:1 0.00803569
*END

*D_NET _027_ 1.06745
*CONN
*I _322_:ZN O *D NOR2_X1
*I _323_:A2 I *D NOR2_X1
*I _404_:A I *D AOI21_X1
*CAP
1 _027_:1 0.141667
2 _027_:2 0.186639
3 _027_:3 0.0933196
4 _027_:4 0.0708336
5 _027_:5 0.125139
6 _027_:6 0.18012
7 _027_:7 0.0418256
8 _027_:8 0.0933196
*RES
1 _027_:1 _027_:2 0.005
2 _027_:2 _027_:3 0.00749994
3 _027_:3 _027_:4 0.005
4 _027_:5 _027_:4 0.00749994
5 _027_:1 _027_:6 0.0149999
6 _027_:7 _027_:8 0.005
7 _027_:8 _027_:2 0.00749994
8 _404_:A _027_:5 0.01075
9 _323_:A2 _027_:6 0.0090714
10 _322_:ZN _027_:7 0.00942854
*END

*D_NET _028_ 0.858657
*CONN
*I _323_:ZN O *D NOR2_X1
*I _326_:C1 I *D AOI211_X1
*I _377_:B1 I *D OAI21_X1
*CAP
1 _028_:1 0.0708336
2 _028_:2 0.186639
3 _028_:3 0.0933196
4 _028_:4 0.0118056
5 _028_:5 0.127669
6 _028_:6 0.103215
7 _028_:7 0.0708336
8 _028_:8 0.0933196
*RES
1 _028_:1 _028_:2 0.005
2 _028_:2 _028_:3 0.00749994
3 _028_:3 _028_:4 0.005
4 _028_:1 _028_:5 0.00749994
5 _028_:6 _028_:7 0.00749994
6 _028_:7 _028_:8 0.005
7 _028_:8 _028_:2 0.00749994
8 _377_:B1 _028_:4 0.00624999
9 _326_:C1 _028_:5 0.0110178
10 _323_:ZN _028_:6 0.00842854
*END

*D_NET _029_ 2.16559
*CONN
*I _324_:ZN O *D NOR3_X4
*I _360_:A I *D OAI21_X1
*I _380_:B2 I *D AOI221_X2
*I _428_:C1 I *D AOI211_X2
*CAP
1 _029_:1 0.238473
2 _029_:2 0.212501
3 _029_:3 0.0708336
4 _029_:4 0.279959
5 _029_:5 0.186639
6 _029_:6 0.0571729
7 _029_:7 0.0475597
8 _029_:8 0.373278
9 _029_:9 0.466598
10 _029_:10 0.0863496
*RES
1 _029_:1 _029_:2 0.0224998
2 _029_:3 _029_:4 0.005
3 _029_:4 _029_:5 0.0149999
4 _029_:5 _029_:6 0.005
5 _029_:7 _029_:8 0.005
6 _029_:8 _029_:9 0.0299998
7 _029_:9 _029_:2 0.005
8 _029_:9 _029_:4 0.00749994
9 _029_:3 _029_:10 0.00749994
10 _428_:C1 _029_:1 0.00774998
11 _380_:B2 _029_:6 0.0110535
12 _360_:A _029_:7 0.0100357
13 _324_:ZN _029_:10 0.00664284
*END

*D_NET _030_ 2.14389
*CONN
*I _325_:ZN O *D OR3_X2
*I _326_:B I *D AOI211_X1
*I _392_:A I *D AOI21_X1
*I _410_:A I *D AOI211_X1
*I _437_:A2 I *D NOR3_X1
*I _451_:C2 I *D AOI211_X1
*CAP
1 _030_:1 0.183661
2 _030_:2 0.161062
3 _030_:3 0.0708336
4 _030_:4 0.186639
5 _030_:5 0.0933196
6 _030_:6 0.0425002
7 _030_:7 0.0708336
8 _030_:8 0.037272
9 _030_:9 0.0933196
10 _030_:10 0.0624011
11 _030_:11 0.279959
12 _030_:12 0.373278
13 _030_:13 0.0933196
14 _030_:14 0.0708336
15 _030_:15 0.0959627
*RES
1 _030_:2 _030_:1 0.00749994
2 _030_:3 _030_:4 0.005
3 _030_:4 _030_:5 0.00749994
4 _030_:5 _030_:6 0.005
5 _030_:1 _030_:7 0.00749994
6 _030_:8 _030_:9 0.005
7 _030_:9 _030_:4 0.00749994
8 _030_:10 _030_:11 0.005
9 _030_:11 _030_:12 0.0224998
10 _030_:12 _030_:7 0.005
11 _030_:12 _030_:13 0.00749994
12 _030_:13 _030_:14 0.005
13 _030_:14 _030_:15 0.00749994
14 _030_:3 _030_:2 0.00749994
15 _451_:C2 _030_:2 0.00705355
16 _437_:A2 _030_:6 0.00949996
17 _410_:A _030_:1 0.00944639
18 _392_:A _030_:8 0.0089464
19 _326_:B _030_:10 0.0116071
20 _325_:ZN _030_:15 0.00766069
*END

*D_NET _031_ 0.551712
*CONN
*I _326_:ZN O *D AOI211_X1
*I _339_:A1 I *D OR3_X1
*CAP
1 _031_:1 0.0489089
2 _031_:2 0.186639
3 _031_:3 0.186639
4 _031_:4 0.0403077
*RES
1 _031_:1 _031_:2 0.005
2 _031_:2 _031_:3 0.0149999
3 _031_:3 _031_:4 0.005
4 _339_:A1 _031_:4 0.00926782
5 _326_:ZN _031_:1 0.0101785
*END

*D_NET _032_ 0.477057
*CONN
*I _327_:ZN O *D NOR3_X1
*I _362_:B2 I *D AOI21_X1
*CAP
1 _032_:1 0.0974806
2 _032_:2 0.0708336
3 _032_:3 0.0933196
4 _032_:4 0.0933196
5 _032_:5 0.0477284
*RES
1 _032_:1 _032_:2 0.00749994
2 _032_:2 _032_:3 0.005
3 _032_:3 _032_:4 0.00749994
4 _032_:4 _032_:5 0.005
5 _362_:B2 _032_:1 0.00782141
6 _327_:ZN _032_:5 0.0100535
*END

*D_NET _033_ 0.615578
*CONN
*I _328_:ZN O *D OR3_X1
*I _333_:A I *D AOI211_X1
*I _372_:A2 I *D OR3_X1
*I _388_:A2 I *D NOR3_X1
*CAP
1 _033_:1 0.218404
2 _033_:2 0.133572
3 _033_:3 0.0974806
*RES
1 _033_:2 _033_:1 0.00749994
2 _033_:1 _033_:3 0.00749994
3 _388_:A2 _033_:2 0.0116428
4 _372_:A2 _033_:1 0.00914282
5 _333_:A _033_:1 0.00898211
6 _328_:ZN _033_:3 0.00782141
*END

*D_NET _034_ 1.1547
*CONN
*I _329_:Z O *D MUX2_X1
*I _332_:A2 I *D NOR2_X1
*I _376_:A2 I *D NAND2_X1
*CAP
1 _034_:1 0.0441867
2 _034_:2 0.0933196
3 _034_:3 0.0933196
4 _034_:4 0.391609
5 _034_:5 0.402402
*RES
1 _034_:1 _034_:2 0.005
2 _034_:2 _034_:3 0.00749994
3 _034_:3 _034_:4 0.005
4 _034_:5 _034_:4 0.0374997
5 _376_:A2 _034_:1 0.00967853
6 _332_:A2 _034_:4 0.00896425
7 _329_:Z _034_:5 0.0101071
*END

*D_NET _035_ 0.290081
*CONN
*I _330_:ZN O *D NOR2_X1
*I _331_:A I *D AOI21_X2
*CAP
1 _035_:1 0.0956254
2 _035_:2 0.120249
*RES
1 _035_:1 _035_:2 0.00749994
2 _331_:A _035_:2 0.0102321
3 _330_:ZN _035_:1 0.00762498
*END

*D_NET _036_ 1.62714
*CONN
*I _331_:ZN O *D AOI21_X2
*I _333_:C1 I *D AOI211_X1
*I _372_:A3 I *D OR3_X1
*I _410_:C1 I *D AOI211_X1
*I _437_:A3 I *D NOR3_X1
*CAP
1 _036_:1 0.212501
2 _036_:2 0.0933196
3 _036_:3 0.0933196
4 _036_:4 0.0489089
5 _036_:5 0.266469
6 _036_:6 0.0708336
7 _036_:7 0.186639
8 _036_:8 0.0933196
9 _036_:9 0.0489089
10 _036_:10 0.0448613
11 _036_:11 0.0933196
12 _036_:12 0.124465
*RES
1 _036_:1 _036_:2 0.005
2 _036_:2 _036_:3 0.00749994
3 _036_:3 _036_:4 0.005
4 _036_:1 _036_:5 0.0149999
5 _036_:6 _036_:7 0.005
6 _036_:7 _036_:8 0.00749994
7 _036_:8 _036_:9 0.005
8 _036_:10 _036_:11 0.005
9 _036_:11 _036_:7 0.00749994
10 _036_:5 _036_:6 0.00749994
11 _036_:12 _036_:1 0.00749994
12 _437_:A3 _036_:4 0.0101785
13 _410_:C1 _036_:5 0.0107142
14 _372_:A3 _036_:9 0.0101785
15 _333_:C1 _036_:10 0.00974996
16 _331_:ZN _036_:12 0.0106785
*END

*D_NET _037_ 0.717554
*CONN
*I _332_:ZN O *D NOR2_X1
*I _333_:B I *D AOI211_X1
*I _410_:B I *D AOI211_X1
*CAP
1 _037_:1 0.102203
2 _037_:2 0.0708336
3 _037_:3 0.0933196
4 _037_:4 0.0933196
5 _037_:5 0.119237
6 _037_:6 0.114852
*RES
1 _037_:1 _037_:2 0.00749994
2 _037_:2 _037_:3 0.005
3 _037_:3 _037_:4 0.00749994
4 _037_:4 _037_:5 0.005
5 _037_:5 _037_:6 0.00749994
6 _410_:B _037_:5 0.010125
7 _333_:B _037_:6 0.00966068
8 _332_:ZN _037_:1 0.0083214
*END

*D_NET _038_ 0.390707
*CONN
*I _333_:ZN O *D AOI211_X1
*I _339_:A2 I *D OR3_X1
*CAP
1 _038_:1 0.0338989
2 _038_:2 0.0933196
3 _038_:3 0.0933196
4 _038_:4 0.0681352
*RES
1 _038_:1 _038_:2 0.005
2 _038_:2 _038_:3 0.00749994
3 _038_:3 _038_:4 0.005
4 _339_:A2 _038_:1 0.00858926
5 _333_:ZN _038_:4 0.0122142
*END

*D_NET _039_ 1.12018
*CONN
*I _334_:ZN O *D NOR3_X1
*I _338_:A1 I *D AND2_X1
*I _412_:B2 I *D AOI21_X1
*CAP
1 _039_:1 0.0659427
2 _039_:2 0.279959
3 _039_:3 0.186639
4 _039_:4 0.0708336
5 _039_:5 0.130536
6 _039_:6 0.0836511
7 _039_:7 0.0708336
8 _039_:8 0.0933196
*RES
1 _039_:1 _039_:2 0.005
2 _039_:2 _039_:3 0.0149999
3 _039_:3 _039_:4 0.005
4 _039_:5 _039_:4 0.00749994
5 _039_:7 _039_:6 0.00749994
6 _039_:7 _039_:8 0.005
7 _039_:8 _039_:2 0.00749994
8 _412_:B2 _039_:5 0.0113214
9 _338_:A1 _039_:1 0.0119821
10 _334_:ZN _039_:6 0.00635713
*END

*D_NET _040_ 0.939499
*CONN
*I _335_:ZN O *D NAND2_X1
*I _336_:A2 I *D NOR2_X2
*I _411_:A2 I *D NOR2_X1
*I _423_:A3 I *D OR4_X1
*CAP
1 _040_:1 0.0165278
2 _040_:2 0.0933196
3 _040_:3 0.0933196
4 _040_:4 0.304585
5 _040_:5 0.267819
*RES
1 _040_:1 _040_:2 0.005
2 _040_:2 _040_:3 0.00749994
3 _040_:3 _040_:4 0.005
4 _040_:4 _040_:5 0.0224998
5 _423_:A3 _040_:1 0.00674999
6 _411_:A2 _040_:4 0.00814283
7 _336_:A2 _040_:4 0.0116071
8 _335_:ZN _040_:5 0.0108571
*END

*D_NET _041_ 1.91217
*CONN
*I _336_:ZN O *D NOR2_X2
*I _338_:A2 I *D AND2_X1
*I _378_:B2 I *D AOI221_X1
*I _394_:B2 I *D AOI221_X1
*I _442_:A I *D OAI211_X1
*CAP
1 _041_:1 0.320607
2 _041_:2 0.342869
3 _041_:3 0.130874
4 _041_:4 0.141667
5 _041_:5 0.102877
6 _041_:6 0.186639
7 _041_:7 0.279959
8 _041_:8 0.0622324
9 _041_:9 0.0933196
*RES
1 _041_:1 _041_:2 0.0299998
2 _041_:3 _041_:4 0.00749994
3 _041_:4 _041_:5 0.00749994
4 _041_:2 _041_:6 0.005
5 _041_:6 _041_:7 0.0149999
6 _041_:7 _041_:8 0.005
7 _041_:7 _041_:9 0.00749994
8 _041_:9 _041_:4 0.005
9 _442_:A _041_:1 0.0089464
10 _394_:B2 _041_:3 0.0113571
11 _378_:B2 _041_:5 0.00839283
12 _338_:A2 _041_:2 0.0113035
13 _336_:ZN _041_:8 0.0115892
*END

*D_NET _042_ 2.37652
*CONN
*I _337_:ZN O *D NAND3_X4
*I _357_:A2 I *D NOR3_X1
*I _406_:A I *D AOI211_X2
*I _427_:A I *D AOI211_X2
*I _451_:C1 I *D AOI211_X1
*I _453_:A I *D AOI211_X1
*CAP
1 _042_:1 0.12008
2 _042_:2 0.101191
3 _042_:3 0.243701
4 _042_:4 0.141667
5 _042_:5 0.279959
6 _042_:6 0.186639
7 _042_:7 0.0708336
8 _042_:8 0.0172025
9 _042_:9 0.0933196
10 _042_:10 0.0571729
11 _042_:11 0.0933196
12 _042_:12 0.186639
13 _042_:13 0.0933196
14 _042_:14 0.212501
15 _042_:15 0.253146
*RES
1 _042_:1 _042_:2 0.00749994
2 _042_:3 _042_:4 0.0149999
3 _042_:2 _042_:5 0.005
4 _042_:5 _042_:6 0.0149999
5 _042_:6 _042_:7 0.005
6 _042_:7 _042_:3 0.00749994
7 _042_:8 _042_:9 0.005
8 _042_:9 _042_:5 0.00749994
9 _042_:10 _042_:11 0.005
10 _042_:11 _042_:12 0.00749994
11 _042_:12 _042_:4 0.005
12 _042_:12 _042_:13 0.00749994
13 _042_:13 _042_:14 0.005
14 _042_:14 _042_:15 0.0224998
15 _453_:A _042_:1 0.0102142
16 _451_:C1 _042_:3 0.00830355
17 _427_:A _042_:2 0.00821426
18 _406_:A _042_:8 0.00682141
19 _357_:A2 _042_:10 0.0110535
20 _337_:ZN _042_:15 0.00930354
*END

*D_NET _043_ 0.345736
*CONN
*I _338_:ZN O *D AND2_X1
*I _339_:A3 I *D OR3_X1
*CAP
1 _043_:1 0.14133
2 _043_:2 0.102371
*RES
1 _043_:2 _043_:1 0.00749994
2 _339_:A3 _043_:2 0.00833926
3 _338_:ZN _043_:1 0.0124642
*END

*D_NET _044_ 1.68324
*CONN
*I _339_:ZN O *D OR3_X1
*I _340_:B I *D AOI211_X2
*CAP
1 _044_:1 0.0310319
2 _044_:2 0.653237
3 _044_:3 0.653237
4 _044_:4 0.141667
5 _044_:5 0.157352
*RES
1 _044_:1 _044_:2 0.005
2 _044_:2 _044_:3 0.0524996
3 _044_:3 _044_:4 0.005
4 _044_:4 _044_:5 0.0149999
5 _340_:B _044_:5 0.0066607
6 _339_:ZN _044_:1 0.00828569
*END

*D_NET _045_ 0.50314
*CONN
*I _340_:ZN O *D AOI211_X2
*I hold78:A I *D CLKBUF_X1
*CAP
1 _045_:1 0.0266469
2 _045_:2 0.186639
3 _045_:3 0.186639
4 _045_:4 0.0382839
*RES
1 _045_:1 _045_:2 0.005
2 _045_:2 _045_:3 0.0149999
3 _045_:3 _045_:4 0.005
4 _340_:ZN _045_:1 0.00782141
5 hold78:A _045_:4 0.00905354
*END

*D_NET _046_ 0.365072
*CONN
*I _342_:ZN O *D AOI211_X1
*I _343_:A I *D AOI221_X1
*CAP
1 _046_:1 0.0593653
2 _046_:2 0.0933196
3 _046_:3 0.0933196
4 _046_:4 0.0298513
*RES
1 _046_:1 _046_:2 0.005
2 _046_:2 _046_:3 0.00749994
3 _046_:3 _046_:4 0.005
4 _343_:A _046_:4 0.00816069
5 _342_:ZN _046_:1 0.0112857
*END

*D_NET _047_ 0.341124
*CONN
*I _343_:ZN O *D AOI221_X1
*I _364_:A1 I *D NAND3_X1
*CAP
1 _047_:1 0.0630757
2 _047_:2 0.0933196
3 _047_:3 0.0933196
4 _047_:4 0.0141667
*RES
1 _047_:1 _047_:2 0.005
2 _047_:2 _047_:3 0.00749994
3 _047_:3 _047_:4 0.005
4 _364_:A1 _047_:1 0.0116785
5 _343_:ZN _047_:4 0.00649999
*END

*D_NET _048_ 0.599609
*CONN
*I _344_:ZN O *D NOR2_X1
*I _345_:A I *D AOI21_X2
*I _425_:A I *D AOI21_X2
*CAP
1 _048_:1 0.059028
2 _048_:2 0.186639
3 _048_:3 0.186639
4 _048_:4 0.0541371
*RES
1 _048_:1 _048_:2 0.005
2 _048_:2 _048_:3 0.0149999
3 _048_:3 _048_:4 0.005
4 _425_:A _048_:1 0.00901783
5 _345_:A _048_:1 0.00723213
6 _344_:ZN _048_:4 0.0107321
*END

*D_NET _049_ 0.718229
*CONN
*I _345_:ZN O *D AOI21_X2
*I _348_:B1 I *D OAI21_X2
*I _392_:B1 I *D AOI21_X1
*CAP
1 _049_:1 0.111647
2 _049_:2 0.114008
3 _049_:3 0.110973
4 _049_:4 0.0708336
5 _049_:5 0.0933196
6 _049_:6 0.0933196
*RES
1 _049_:1 _049_:2 0.00749994
2 _049_:3 _049_:4 0.00749994
3 _049_:4 _049_:5 0.005
4 _049_:5 _049_:6 0.00749994
5 _049_:6 _049_:1 0.005
6 _392_:B1 _049_:2 0.00957139
7 _348_:B1 _049_:1 0.00932139
8 _345_:ZN _049_:3 0.00924997
*END

*D_NET _050_ 0.611978
*CONN
*I _346_:ZN O *D NAND2_X1
*I _388_:A3 I *D NOR3_X1
*I _451_:B I *D AOI211_X1
*CAP
1 _050_:1 0.0487403
2 _050_:2 0.0933196
3 _050_:3 0.0933196
4 _050_:4 0.1076
5 _050_:5 0.127163
*RES
1 _050_:1 _050_:2 0.005
2 _050_:2 _050_:3 0.00749994
3 _050_:3 _050_:4 0.005
4 _050_:4 _050_:5 0.00749994
5 _451_:B _050_:4 0.00889283
6 _388_:A3 _050_:5 0.0109642
7 _346_:ZN _050_:1 0.0101607
*END

*D_NET _051_ 0.386549
*CONN
*I _347_:ZN O *D NAND3_X1
*I _348_:A I *D OAI21_X2
*CAP
1 _051_:1 0.127332
2 _051_:2 0.136776
*RES
1 _051_:2 _051_:1 0.00749994
2 _348_:A _051_:2 0.0119821
3 _347_:ZN _051_:1 0.0109821
*END

*D_NET _052_ 0.98065
*CONN
*I _348_:ZN O *D OAI21_X2
*I _362_:B1 I *D AOI21_X1
*I _428_:C2 I *D AOI211_X2
*CAP
1 _052_:1 0.321112
2 _052_:2 0.0933196
3 _052_:3 0.0933196
4 _052_:4 0.0377779
5 _052_:5 0.32145
*RES
1 _052_:1 _052_:2 0.005
2 _052_:2 _052_:3 0.00749994
3 _052_:3 _052_:4 0.005
4 _052_:1 _052_:5 0.0299998
5 _428_:C2 _052_:4 0.00899997
6 _362_:B1 _052_:5 0.00903568
7 _348_:ZN _052_:1 0.00899997
*END

*D_NET _053_ 3.10947
*CONN
*I _349_:ZN O *D NAND2_X2
*I _351_:A2 I *D NOR2_X1
*I _387_:A2 I *D NOR3_X1
*I _401_:A1 I *D OR3_X1
*I _419_:A2 I *D NOR2_X1
*I _436_:A2 I *D NOR2_X1
*I _459_:C1 I *D OAI221_X1
*I _465_:B2 I *D OAI221_X1
*CAP
1 _053_:1 0.212501
2 _053_:2 0.186639
3 _053_:3 0.0933196
4 _053_:4 0.0209128
5 _053_:5 0.225824
6 _053_:6 0.0414883
7 _053_:7 0.279959
8 _053_:8 0.186639
9 _053_:9 0.0123116
10 _053_:10 0.0933196
11 _053_:11 0.0182144
12 _053_:12 0.279959
13 _053_:13 0.186639
14 _053_:14 0.212501
15 _053_:15 0.252977
16 _053_:16 0.212501
17 _053_:17 0.0933196
18 _053_:18 0.141667
19 _053_:19 0.0933196
20 _053_:20 0.0947821
*RES
1 _053_:1 _053_:2 0.005
2 _053_:2 _053_:3 0.00749994
3 _053_:3 _053_:4 0.005
4 _053_:5 _053_:1 0.0224998
5 _053_:6 _053_:7 0.005
6 _053_:7 _053_:8 0.0149999
7 _053_:8 _053_:5 0.005
8 _053_:9 _053_:10 0.005
9 _053_:10 _053_:7 0.00749994
10 _053_:11 _053_:12 0.005
11 _053_:12 _053_:13 0.0149999
12 _053_:13 _053_:14 0.005
13 _053_:16 _053_:15 0.0224998
14 _053_:16 _053_:17 0.005
15 _053_:17 _053_:12 0.00749994
16 _053_:18 _053_:14 0.0149999
17 _053_:18 _053_:19 0.005
18 _053_:19 _053_:2 0.00749994
19 _053_:14 _053_:20 0.00749994
20 _465_:B2 _053_:20 0.00753569
21 _459_:C1 _053_:4 0.00721427
22 _436_:A2 _053_:5 0.0064107
23 _419_:A2 _053_:6 0.00939282
24 _401_:A1 _053_:9 0.00630356
25 _387_:A2 _053_:11 0.00692856
26 _351_:A2 _053_:15 0.00701784
27 _349_:ZN _053_:15 0.00726784
*END

*D_NET _054_ 0.262759
*CONN
*I _350_:ZN O *D NAND3_X1
*I _363_:C1 I *D AOI221_X1
*CAP
1 _054_:1 0.119237
2 _054_:2 0.0829765
*RES
1 _054_:2 _054_:1 0.00749994
2 _363_:C1 _054_:2 0.0062857
3 _350_:ZN _054_:1 0.010125
*END

*D_NET _055_ 1.07756
*CONN
*I _351_:ZN O *D NOR2_X1
*I _363_:C2 I *D AOI221_X1
*CAP
1 _055_:1 0.0231053
2 _055_:2 0.466598
3 _055_:3 0.466598
4 _055_:4 0.0490776
*RES
1 _055_:1 _055_:2 0.005
2 _055_:2 _055_:3 0.0374997
3 _055_:3 _055_:4 0.005
4 _363_:C2 _055_:1 0.00744641
5 _351_:ZN _055_:4 0.0101964
*END

*D_NET _056_ 0.52293
*CONN
*I _352_:ZN O *D NOR3_X1
*I _363_:B2 I *D AOI221_X1
*CAP
1 _056_:1 0.113165
2 _056_:2 0.0708336
3 _056_:3 0.0933196
4 _056_:4 0.0933196
5 _056_:5 0.0549804
*RES
1 _056_:1 _056_:2 0.00749994
2 _056_:2 _056_:3 0.005
3 _056_:3 _056_:4 0.00749994
4 _056_:4 _056_:5 0.005
5 _363_:B2 _056_:1 0.00948211
6 _352_:ZN _056_:5 0.0108214
*END

*D_NET _057_ 2.56113
*CONN
*I _353_:ZN O *D NAND2_X2
*I _385_:A1 I *D NOR2_X1
*I _414_:C2 I *D OAI211_X1
*I _429_:C1 I *D OAI211_X1
*I _434_:A I *D AOI21_X1
*I _449_:A1 I *D OR2_X1
*I _465_:C1 I *D OAI221_X1
*CAP
1 _057_:1 0.0708336
2 _057_:2 0.279959
3 _057_:3 0.186639
4 _057_:4 0.0403077
5 _057_:5 0.248255
6 _057_:6 0.186639
7 _057_:7 0.186639
8 _057_:8 0.0303573
9 _057_:9 0.0933196
10 _057_:10 0.0708336
11 _057_:11 0.116707
12 _057_:12 0.297333
13 _057_:13 0.0246231
14 _057_:14 0.0933196
15 _057_:15 0.175566
16 _057_:16 0.141667
17 _057_:17 0.0933196
*RES
1 _057_:1 _057_:2 0.005
2 _057_:2 _057_:3 0.0149999
3 _057_:3 _057_:4 0.005
4 _057_:5 _057_:6 0.005
5 _057_:6 _057_:7 0.00749994
6 _057_:7 _057_:8 0.005
7 _057_:7 _057_:9 0.00749994
8 _057_:9 _057_:10 0.005
9 _057_:11 _057_:10 0.00749994
10 _057_:5 _057_:12 0.0224998
11 _057_:13 _057_:14 0.005
12 _057_:14 _057_:6 0.00749994
13 _057_:12 _057_:1 0.00749994
14 _057_:16 _057_:15 0.0149999
15 _057_:16 _057_:17 0.005
16 _057_:17 _057_:2 0.00749994
17 _465_:C1 _057_:4 0.00926782
18 _449_:A1 _057_:8 0.00821426
19 _434_:A _057_:11 0.0098571
20 _429_:C1 _057_:5 0.00878568
21 _414_:C2 _057_:13 0.00760712
22 _385_:A1 _057_:12 0.00648213
23 _353_:ZN _057_:15 0.00858926
*END

*D_NET _058_ 0.491224
*CONN
*I _354_:ZN O *D XNOR2_X1
*I _363_:B1 I *D AOI221_X1
*CAP
1 _058_:1 0.0455359
2 _058_:2 0.0933196
3 _058_:3 0.0933196
4 _058_:4 0.0708336
5 _058_:5 0.106756
*RES
1 _058_:1 _058_:2 0.005
2 _058_:2 _058_:3 0.00749994
3 _058_:3 _058_:4 0.005
4 _058_:5 _058_:4 0.00749994
5 _363_:B1 _058_:5 0.00880354
6 _354_:ZN _058_:1 0.00982139
*END

*D_NET _059_ 0.26141
*CONN
*I _355_:ZN O *D NOR2_X1
*I _356_:A2 I *D NOR2_X1
*I _358_:A I *D AOI21_X1
*CAP
1 _059_:1 0.100685
2 _059_:2 0.100854
*RES