* CDL Netlist generated by OpenROAD

*.BUSDELIMITER [

.SUBCKT alu a[0] a[1] a[2] a[3] a[4] a[5] a[6] a[7] b[0] b[1]
+ b[2] b[3] b[4] b[5] b[6] b[7] clk opcode[0] opcode[1] opcode[2]
+ opcode[3] overflow_flag result[0] result[1] result[2] result[3]
+ result[4] result[5] result[6] result[7] rst_n zero_flag
X_239_ a[1] _162_ VDD VSS INV_X1
X_240_ net52 _163_ VDD VSS INV_X2
X_241_ a[3] _164_ VDD VSS INV_X1
X_242_ net48 _165_ VDD VSS INV_X2
X_243_ net103 _166_ VDD VSS INV_X1
X_244_ a[6] _167_ VDD VSS INV_X1
X_245_ b[2] _168_ VDD VSS INV_X2
X_246_ net90 _169_ VDD VSS INV_X1
X_247_ b[4] _170_ VDD VSS INV_X1
X_248_ b[5] _171_ VDD VSS INV_X1
X_249_ net76 _172_ VDD VSS INV_X1
X_250_ net96 _173_ VDD VSS INV_X1
X_251_ opcode[3] _174_ VDD VSS INV_X1
X_252_ net61 _175_ VDD VSS INV_X1
X_253_ net62 net43 _176_ VDD VSS NOR2_X2
X_254_ _176_ _177_ VDD VSS INV_X1
X_255_ net58 _172_ _178_ VDD VSS NAND2_X1
X_256_ net58 net76 _179_ VDD VSS NAND2_X1
X_257_ net80 net76 _180_ VDD VSS XOR2_X2
X_258_ net58 net76 _181_ VDD VSS XNOR2_X1
X_259_ _167_ net100 _182_ VDD VSS NOR2_X1
X_260_ a[6] net100 _183_ VDD VSS OR2_X1
X_261_ net152 net100 _184_ VDD VSS NAND2_X2
X_262_ _183_ _184_ _185_ VDD VSS AND2_X1
X_263_ _183_ _184_ _186_ VDD VSS NAND2_X1
X_264_ _164_ b[3] _187_ VDD VSS NOR2_X2
X_265_ net121 b[3] _188_ VDD VSS AND2_X1
X_266_ net121 b[3] _189_ VDD VSS NOR2_X2
X_267_ net122 _190_ VDD VSS INV_X1
X_268_ net41 net122 _191_ VDD VSS NOR2_X4
X_269_ a[2] _168_ _192_ VDD VSS NAND2_X1
X_270_ net149 b[2] _193_ VDD VSS OR2_X1
X_271_ a[2] b[2] _194_ VDD VSS NAND2_X1
X_272_ _193_ _194_ _195_ VDD VSS AND2_X1
X_273_ _193_ _194_ _196_ VDD VSS NAND2_X2
X_274_ a[1] net48 _197_ VDD VSS AND2_X1
X_275_ a[1] net48 _198_ VDD VSS XOR2_X2
X_276_ _198_ _169_ net56 _199_ VDD VSS AOI21_X2
X_277_ _162_ net48 _200_ VDD VSS NOR2_X1
X_278_ _196_ _199_ _200_ _201_ VDD VSS OAI21_X2
X_279_ _191_ _192_ _201_ _202_ VDD VSS AOI21_X4
X_280_ _187_ _202_ _203_ VDD VSS NOR2_X1
X_281_ _166_ _171_ _204_ VDD VSS NOR2_X1
X_282_ net103 b[5] _205_ VDD VSS XOR2_X2
X_283_ net103 b[5] _206_ VDD VSS XNOR2_X2
X_284_ net60 b[4] _207_ VDD VSS NAND2_X1
X_285_ net60 b[4] _208_ VDD VSS XOR2_X2
X_286_ net60 b[4] _209_ VDD VSS XNOR2_X2
X_287_ _206_ _209_ _210_ VDD VSS NAND2_X1
X_288_ _206_ _209_ _187_ _202_ _211_ VDD VSS OAI211_X2
X_289_ net60 _170_ _212_ VDD VSS NAND2_X1
X_290_ _205_ _212_ _213_ VDD VSS NOR2_X1
X_291_ _213_ _171_ net103 _214_ VDD VSS AOI21_X2
X_292_ net40 _211_ net104 _215_ VDD VSS AOI21_X2
X_293_ net101 _215_ _216_ VDD VSS NOR2_X1
X_294_ _181_ _182_ _215_ _217_ VDD VSS OAI21_X1
X_295_ _178_ _217_ _218_ VDD VSS AND2_X1
X_296_ _178_ _217_ _219_ VDD VSS NAND2_X1
X_297_ _174_ net85 _220_ VDD VSS NAND2_X4
X_298_ net96 opcode[1] _221_ VDD VSS NAND2_X2
X_299_ net86 _221_ _222_ VDD VSS NOR2_X1
X_300_ net55 _169_ _223_ VDD VSS NOR2_X1
X_301_ net55 net90 _224_ VDD VSS AND2_X1
X_302_ net55 net90 _225_ VDD VSS NAND2_X1
X_303_ _163_ _169_ _226_ VDD VSS NAND2_X1
X_304_ _191_ _223_ _227_ VDD VSS NOR2_X1
X_305_ net81 net40 _195_ _228_ VDD VSS NOR3_X1
X_306_ _199_ _227_ _228_ _011_ VDD VSS NAND3_X1
X_307_ net87 _011_ _210_ _012_ VDD VSS OAI21_X1
X_308_ _012_ _013_ VDD VSS INV_X1
X_309_ net151 net85 _014_ VDD VSS OR2_X4
X_310_ opcode[1] _014_ _015_ VDD VSS NOR2_X2
X_311_ opcode[1] _220_ _016_ VDD VSS NOR2_X2
X_312_ net96 opcode[1] net86 _017_ VDD VSS NOR3_X4
X_313_ net91 _226_ _015_ _017_ _018_ VDD VSS OAI211_X1
X_314_ _221_ _014_ _019_ VDD VSS NOR2_X4
X_315_ _226_ _019_ _020_ VDD VSS NAND2_X1
X_316_ _173_ opcode[1] _021_ VDD VSS NAND2_X2
X_317_ _014_ _021_ _022_ VDD VSS OR2_X2
X_318_ _022_ _023_ VDD VSS INV_X1
X_319_ net92 _020_ _022_ net91 _024_ VDD VSS OAI211_X1
X_320_ net48 _223_ a[1] net55 _025_ VDD VSS AOI211_X1
X_321_ a[2] _163_ _026_ VDD VSS AND2_X1
X_322_ _163_ _164_ _027_ VDD VSS NOR2_X1
X_323_ _026_ _027_ _028_ VDD VSS NOR2_X1
X_324_ net108 net86 _021_ _029_ VDD VSS NOR3_X4
X_325_ b[2] _220_ _021_ _030_ VDD VSS OR3_X2
X_326_ _025_ _030_ _028_ net48 _031_ VDD VSS AOI211_X1
X_327_ _168_ net86 _021_ _032_ VDD VSS NOR3_X1
X_328_ _168_ _220_ _021_ _033_ VDD VSS OR3_X1
X_329_ net60 a[5] net54 _034_ VDD VSS MUX2_X1
X_330_ net54 _167_ _035_ VDD VSS NOR2_X1
X_331_ _035_ net58 net54 _036_ VDD VSS AOI21_X2
X_332_ net50 _034_ _037_ VDD VSS NOR2_X1
X_333_ _033_ _037_ _036_ net49 _038_ VDD VSS AOI211_X1
X_334_ net55 net48 _169_ _039_ VDD VSS NOR3_X1
X_335_ net96 _016_ _040_ VDD VSS NAND2_X1
X_336_ net108 _040_ _041_ VDD VSS NOR2_X2
X_337_ _168_ net96 _016_ _042_ VDD VSS NAND3_X4
X_338_ _039_ _041_ _043_ VDD VSS AND2_X1
X_339_ _031_ _038_ _043_ _044_ VDD VSS OR3_X1
X_340_ net93 _044_ _219_ _013_ _045_ VDD VSS AOI211_X2
X_341_ _176_ net94 net42 _001_ VDD VSS AOI21_X1
X_342_ _221_ _014_ _162_ _165_ _046_ VDD VSS AOI211_X1
X_343_ _046_ _017_ _198_ _197_ _023_ _047_ VDD VSS AOI221_X1
X_344_ net54 _166_ _048_ VDD VSS NOR2_X1
X_345_ _048_ a[6] net52 _049_ VDD VSS AOI21_X2
X_346_ _163_ net58 _050_ VDD VSS NAND2_X1
X_347_ _163_ net46 net58 _051_ VDD VSS NAND3_X1
X_348_ _051_ _049_ net50 _052_ VDD VSS OAI21_X2
X_349_ net96 _015_ _053_ VDD VSS NAND2_X2
X_350_ net55 _169_ _198_ _054_ VDD VSS NAND3_X1
X_351_ _199_ _053_ _055_ VDD VSS NOR2_X1
X_352_ net148 opcode[1] _014_ _056_ VDD VSS NOR3_X1
X_353_ _173_ _015_ _057_ VDD VSS NAND2_X2
X_354_ _198_ _225_ _058_ VDD VSS XNOR2_X1
X_355_ _162_ net55 _059_ VDD VSS NOR2_X1
X_356_ _224_ _059_ _060_ VDD VSS NOR2_X1
X_357_ net49 _042_ _060_ _061_ VDD VSS NOR3_X1
X_358_ _059_ net55 a[2] _062_ VDD VSS AOI21_X1
X_359_ net121 net60 net52 _063_ VDD VSS MUX2_X1
X_360_ _029_ _063_ _165_ _064_ VDD VSS OAI21_X1
X_361_ _064_ _062_ _165_ _065_ VDD VSS AOI21_X1
X_362_ _061_ _052_ _032_ _066_ VDD VSS AOI21_X1
X_363_ _065_ _058_ _056_ _054_ _055_ _067_ VDD VSS AOI221_X1
X_364_ _047_ _066_ _067_ _068_ VDD VSS NAND3_X1
X_365_ _068_ net87 _218_ _069_ VDD VSS AOI21_X1
X_366_ _176_ net88 net42 _002_ VDD VSS AOI21_X1
X_367_ _196_ _199_ _200_ _070_ VDD VSS OR3_X1
X_368_ net96 _201_ _015_ _070_ _071_ VDD VSS NAND4_X1
X_369_ _197_ _198_ _224_ _072_ VDD VSS AOI21_X2
X_370_ _173_ _015_ _072_ _196_ _073_ VDD VSS OAI211_X1
X_371_ _073_ _072_ _196_ _074_ VDD VSS AOI21_X1
X_372_ net49 _033_ _036_ _075_ VDD VSS OR3_X1
X_373_ _026_ net52 a[1] _076_ VDD VSS AOI21_X2
X_374_ net48 _223_ _077_ VDD VSS NAND2_X1
X_375_ _077_ _076_ net45 _078_ VDD VSS OAI21_X2
X_376_ net45 _034_ _079_ VDD VSS NAND2_X1
X_377_ _079_ _028_ net46 _080_ VDD VSS OAI21_X1
X_378_ _074_ _078_ _041_ _019_ net150 _081_ VDD VSS AOI221_X1
X_379_ net43 _075_ _022_ _194_ _082_ VDD VSS OAI211_X1
X_380_ _082_ _080_ _029_ _195_ _017_ _083_ VDD VSS AOI221_X2
X_381_ net97 _081_ _083_ _084_ VDD VSS NAND3_X1
X_382_ _177_ net98 _003_ VDD VSS AND2_X1
X_383_ _194_ _196_ _072_ _085_ VDD VSS OAI21_X1
X_384_ _191_ _085_ _086_ VDD VSS XNOR2_X1
X_385_ _057_ _086_ _087_ VDD VSS NOR2_X1
X_386_ _191_ _192_ _201_ _088_ VDD VSS AND3_X1
X_387_ _202_ _053_ _088_ _089_ VDD VSS NOR3_X1
X_388_ net46 _033_ _050_ _090_ VDD VSS NOR3_X1
X_389_ a[3] a[2] net52 _091_ VDD VSS MUX2_X1
X_390_ _165_ _091_ _092_ VDD VSS NAND2_X1
X_391_ _092_ _060_ _165_ _093_ VDD VSS OAI21_X1
X_392_ _030_ _049_ net45 _094_ VDD VSS AOI21_X1
X_393_ _094_ _063_ net46 _095_ VDD VSS OAI21_X1
X_394_ _090_ _093_ _041_ _023_ net41 _096_ VDD VSS AOI221_X1
X_395_ _191_ _017_ _019_ net123 _097_ VDD VSS AOI22_X1
X_396_ _095_ _096_ net124 _098_ VDD VSS NAND3_X1
X_397_ _087_ _089_ net125 _099_ VDD VSS OR3_X1
X_398_ net63 net126 net42 _004_ VDD VSS MUX2_X1
X_399_ _203_ _208_ _100_ VDD VSS NOR2_X1
X_400_ _187_ _202_ _209_ _101_ VDD VSS NOR3_X1
X_401_ _053_ _100_ _101_ _102_ VDD VSS OR3_X1
X_402_ net41 _191_ _085_ _103_ VDD VSS AOI21_X1
X_403_ _209_ _103_ _104_ VDD VSS XNOR2_X1
X_404_ _027_ net60 _163_ _105_ VDD VSS AOI21_X1
X_405_ _165_ _105_ _106_ VDD VSS AND2_X1
X_406_ _042_ _106_ _076_ net45 _107_ VDD VSS AOI211_X2
X_407_ _019_ b[4] net114 _108_ VDD VSS OAI21_X1
X_408_ net115 _022_ _207_ _109_ VDD VSS OAI21_X1
X_409_ _107_ net116 _208_ _017_ _110_ VDD VSS AOI211_X1
X_410_ _030_ _037_ _036_ net46 _111_ VDD VSS AOI211_X1
X_411_ _168_ _040_ _112_ VDD VSS NOR2_X1
X_412_ _111_ _112_ _039_ _113_ VDD VSS AOI21_X1
X_413_ net117 _113_ _114_ VDD VSS AND2_X1
X_414_ _102_ net118 _104_ _057_ _115_ VDD VSS OAI211_X1
X_415_ net64 net119 net42 _005_ VDD VSS MUX2_X1
X_416_ _207_ _209_ _103_ _116_ VDD VSS OAI21_X1
X_417_ _205_ _116_ _117_ VDD VSS XNOR2_X1
X_418_ _205_ _212_ _118_ VDD VSS NAND2_X1
X_419_ _213_ _053_ _119_ VDD VSS NOR2_X1
X_420_ _211_ _119_ _118_ _100_ _120_ VDD VSS OAI211_X1
X_421_ _221_ _014_ _166_ _171_ _121_ VDD VSS AOI211_X2
X_422_ _121_ _017_ _205_ _204_ _023_ _122_ VDD VSS AOI221_X2
X_423_ net49 _168_ _040_ _060_ _123_ VDD VSS OR4_X1
X_424_ _122_ _123_ _124_ VDD VSS NAND2_X1
X_425_ _048_ net60 net52 _125_ VDD VSS AOI21_X2
X_426_ _165_ _091_ _126_ VDD VSS NOR2_X1
X_427_ _042_ _126_ _125_ _165_ _127_ VDD VSS AOI211_X2
X_428_ _124_ _127_ net109 _052_ _128_ VDD VSS AOI211_X2
X_429_ _120_ net110 _057_ _117_ _129_ VDD VSS OAI211_X1
X_430_ net111 _130_ VDD VSS INV_X1
X_431_ _176_ net112 net42 _006_ VDD VSS AOI21_X1
X_432_ _204_ _205_ _116_ _131_ VDD VSS AOI21_X1
X_433_ _186_ _131_ _132_ VDD VSS OR2_X1
X_434_ _057_ _131_ _186_ _133_ VDD VSS AOI21_X1
X_435_ net40 _211_ net104 _134_ VDD VSS NAND3_X1
X_436_ _215_ _053_ _135_ VDD VSS NOR2_X1
X_437_ net46 _030_ _036_ _136_ VDD VSS NOR3_X1
X_438_ _184_ _022_ _137_ VDD VSS NOR2_X1
X_439_ _136_ _017_ net40 _138_ VDD VSS AOI21_X1
X_440_ a[6] net103 net52 _139_ VDD VSS MUX2_X1
X_441_ net45 _105_ _140_ VDD VSS NAND2_X1
X_442_ _041_ _140_ _139_ net45 _141_ VDD VSS OAI211_X1
X_443_ _137_ _112_ _078_ _183_ _019_ _142_ VDD VSS AOI221_X2
X_444_ _138_ _141_ _142_ _143_ VDD VSS NAND3_X1
X_445_ _143_ _135_ net105 _132_ _133_ _144_ VDD VSS AOI221_X2
X_446_ _176_ net106 net42 _007_ VDD VSS AOI21_X1
X_447_ _181_ _184_ _132_ _145_ VDD VSS AOI21_X1
X_448_ _181_ _184_ _132_ _146_ VDD VSS AND3_X1
X_449_ _057_ _145_ _147_ VDD VSS OR2_X1
X_450_ net81 _216_ _148_ VDD VSS XNOR2_X1
X_451_ net46 _050_ _042_ _030_ _149_ VDD VSS AOI211_X1
X_452_ net45 a[6] net52 _150_ VDD VSS AOI21_X1
X_453_ _042_ _150_ _125_ net45 _151_ VDD VSS AOI211_X1
X_454_ _093_ _112_ _152_ VDD VSS AND2_X1
X_455_ _019_ net76 net58 _153_ VDD VSS OAI21_X1
X_456_ _153_ _022_ _179_ _154_ VDD VSS OAI21_X1
X_457_ _149_ _151_ _154_ _155_ VDD VSS OR3_X1
X_458_ _152_ _155_ net81 _017_ _156_ VDD VSS AOI211_X2
X_459_ net82 _147_ _146_ _053_ _148_ _157_ VDD VSS OAI221_X1
X_460_ net65 net83 net42 _008_ VDD VSS MUX2_X1
X_461_ net98 net126 _115_ net111 _158_ VDD VSS NOR4_X1
X_462_ net94 net88 net106 _158_ _159_ VDD VSS NAND4_X1
X_463_ _175_ net42 net83 _159_ _009_ VDD VSS OAI22_X1
X_464_ _145_ net76 net58 _160_ VDD VSS AOI21_X1
X_465_ net43 _219_ _053_ _057_ net77 _161_ VDD VSS OAI221_X1
X_466_ _177_ net78 _010_ VDD VSS AND2_X1
X_467_ net95 clknet_1_1__leaf_clk net72 _238_ VDD VSS DFF_X2
X_468_ net89 clknet_1_1__leaf_clk net73 _237_ VDD VSS DFF_X2
X_469_ net99 clknet_1_1__leaf_clk net74 _236_ VDD VSS DFF_X2
X_470_ net127 clknet_1_0__leaf_clk net68 _235_ VDD VSS DFF_X2
X_471_ net120 clknet_1_0__leaf_clk net66 _234_ VDD VSS DFF_X2
X_472_ net113 clknet_1_0__leaf_clk net69 _233_ VDD VSS DFF_X2
X_473_ net107 clknet_1_0__leaf_clk net71 _232_ VDD VSS DFF_X2
X_474_ _008_ clknet_1_0__leaf_clk net70 _231_ VDD VSS DFF_X2
X_475_ net84 clknet_1_0__leaf_clk net67 _230_ VDD VSS DFF_X2
X_476_ net79 clknet_1_1__leaf_clk net75 _229_ VDD VSS DFF_X2
Xclkbuf_0_clk clk clknet_0_clk _unconnected_0 _unconnected_1
+ CLKBUF_X3
XTAP_EDGE_ROW_0_Right_0 VDD VSS TAPCELL_X1
XTAP_EDGE_ROW_1_Right_1 VDD VSS TAPCELL_X1
XTAP_EDGE_ROW_2_Right_2 VDD VSS TAPCELL_X1
XTAP_EDGE_ROW_3_Right_3 VDD VSS TAPCELL_X1
XTAP_EDGE_ROW_4_Right_4 VDD VSS TAPCELL_X1
XTAP_EDGE_ROW_5_Right_5 VDD VSS TAPCELL_X1
XTAP_EDGE_ROW_6_Right_6 VDD VSS TAPCELL_X1
XTAP_EDGE_ROW_7_Right_7 VDD VSS TAPCELL_X1
XTAP_EDGE_ROW_8_Right_8 VDD VSS TAPCELL_X1
XTAP_EDGE_ROW_9_Right_9 VDD VSS TAPCELL_X1
XTAP_EDGE_ROW_10_Right_10 VDD VSS TAPCELL_X1
XTAP_EDGE_ROW_11_Right_11 VDD VSS TAPCELL_X1
XTAP_EDGE_ROW_12_Right_12 VDD VSS TAPCELL_X1
XTAP_EDGE_ROW_13_Right_13 VDD VSS TAPCELL_X1
XTAP_EDGE_ROW_14_Right_14 VDD VSS TAPCELL_X1
XTAP_EDGE_ROW_15_Right_15 VDD VSS TAPCELL_X1
XTAP_EDGE_ROW_16_Right_16 VDD VSS TAPCELL_X1
XTAP_EDGE_ROW_17_Right_17 VDD VSS TAPCELL_X1
XTAP_EDGE_ROW_18_Right_18 VDD VSS TAPCELL_X1
XTAP_EDGE_ROW_19_Right_19 VDD VSS TAPCELL_X1
XTAP_EDGE_ROW_20_Right_20 VDD VSS TAPCELL_X1
XTAP_EDGE_ROW_21_Right_21 VDD VSS TAPCELL_X1
XTAP_EDGE_ROW_22_Right_22 VDD VSS TAPCELL_X1
XTAP_EDGE_ROW_23_Right_23 VDD VSS TAPCELL_X1
XTAP_EDGE_ROW_24_Right_24 VDD VSS TAPCELL_X1
XTAP_EDGE_ROW_25_Right_25 VDD VSS TAPCELL_X1
XTAP_EDGE_ROW_26_Right_26 VDD VSS TAPCELL_X1
XTAP_EDGE_ROW_27_Right_27 VDD VSS TAPCELL_X1
XTAP_EDGE_ROW_28_Right_28 VDD VSS TAPCELL_X1
XTAP_EDGE_ROW_29_Right_29 VDD VSS TAPCELL_X1
XTAP_EDGE_ROW_30_Right_30 VDD VSS TAPCELL_X1
XTAP_EDGE_ROW_31_Right_31 VDD VSS TAPCELL_X1
XTAP_EDGE_ROW_32_Right_32 VDD VSS TAPCELL_X1
XTAP_EDGE_ROW_33_Right_33 VDD VSS TAPCELL_X1
XTAP_EDGE_ROW_0_Left_34 VDD VSS TAPCELL_X1
XTAP_EDGE_ROW_1_Left_35 VDD VSS TAPCELL_X1
XTAP_EDGE_ROW_2_Left_36 VDD VSS TAPCELL_X1
XTAP_EDGE_ROW_3_Left_37 VDD VSS TAPCELL_X1
XTAP_EDGE_ROW_4_Left_38 VDD VSS TAPCELL_X1
XTAP_EDGE_ROW_5_Left_39 VDD VSS TAPCELL_X1
XTAP_EDGE_ROW_6_Left_40 VDD VSS TAPCELL_X1
XTAP_EDGE_ROW_7_Left_41 VDD VSS TAPCELL_X1
XTAP_EDGE_ROW_8_Left_42 VDD VSS TAPCELL_X1
XTAP_EDGE_ROW_9_Left_43 VDD VSS TAPCELL_X1
XTAP_EDGE_ROW_10_Left_44 VDD VSS TAPCELL_X1
XTAP_EDGE_ROW_11_Left_45 VDD VSS TAPCELL_X1
XTAP_EDGE_ROW_12_Left_46 VDD VSS TAPCELL_X1
XTAP_EDGE_ROW_13_Left_47 VDD VSS TAPCELL_X1
XTAP_EDGE_ROW_14_Left_48 VDD VSS TAPCELL_X1
XTAP_EDGE_ROW_15_Left_49 VDD VSS TAPCELL_X1
XTAP_EDGE_ROW_16_Left_50 VDD VSS TAPCELL_X1
XTAP_EDGE_ROW_17_Left_51 VDD VSS TAPCELL_X1
XTAP_EDGE_ROW_18_Left_52 VDD VSS TAPCELL_X1
XTAP_EDGE_ROW_19_Left_53 VDD VSS TAPCELL_X1
XTAP_EDGE_ROW_20_Left_54 VDD VSS TAPCELL_X1
XTAP_EDGE_ROW_21_Left_55 VDD VSS TAPCELL_X1
XTAP_EDGE_ROW_22_Left_56 VDD VSS TAPCELL_X1
XTAP_EDGE_ROW_23_Left_57 VDD VSS TAPCELL_X1
XTAP_EDGE_ROW_24_Left_58 VDD VSS TAPCELL_X1
XTAP_EDGE_ROW_25_Left_59 VDD VSS TAPCELL_X1
XTAP_EDGE_ROW_26_Left_60 VDD VSS TAPCELL_X1
XTAP_EDGE_ROW_27_Left_61 VDD VSS TAPCELL_X1
XTAP_EDGE_ROW_28_Left_62 VDD VSS TAPCELL_X1
XTAP_EDGE_ROW_29_Left_63 VDD VSS TAPCELL_X1
XTAP_EDGE_ROW_30_Left_64 VDD VSS TAPCELL_X1
XTAP_EDGE_ROW_31_Left_65 VDD VSS TAPCELL_X1
XTAP_EDGE_ROW_32_Left_66 VDD VSS TAPCELL_X1
XTAP_EDGE_ROW_33_Left_67 VDD VSS TAPCELL_X1
XTAP_TAPCELL_ROW_0_68 VDD VSS TAPCELL_X1
XTAP_TAPCELL_ROW_0_69 VDD VSS TAPCELL_X1
XTAP_TAPCELL_ROW_0_70 VDD VSS TAPCELL_X1
XTAP_TAPCELL_ROW_1_71 VDD VSS TAPCELL_X1
XTAP_TAPCELL_ROW_2_72 VDD VSS TAPCELL_X1
XTAP_TAPCELL_ROW_2_73 VDD VSS TAPCELL_X1
XTAP_TAPCELL_ROW_3_74 VDD VSS TAPCELL_X1
XTAP_TAPCELL_ROW_4_75 VDD VSS TAPCELL_X1
XTAP_TAPCELL_ROW_4_76 VDD VSS TAPCELL_X1
XTAP_TAPCELL_ROW_5_77 VDD VSS TAPCELL_X1
XTAP_TAPCELL_ROW_6_78 VDD VSS TAPCELL_X1
XTAP_TAPCELL_ROW_6_79 VDD VSS TAPCELL_X1
XTAP_TAPCELL_ROW_7_80 VDD VSS TAPCELL_X1
XTAP_TAPCELL_ROW_8_81 VDD VSS TAPCELL_X1
XTAP_TAPCELL_ROW_8_82 VDD VSS TAPCELL_X1
XTAP_TAPCELL_ROW_9_83 VDD VSS TAPCELL_X1
XTAP_TAPCELL_ROW_10_84 VDD VSS TAPCELL_X1
XTAP_TAPCELL_ROW_10_85 VDD VSS TAPCELL_X1
XTAP_TAPCELL_ROW_11_86 VDD VSS TAPCELL_X1
XTAP_TAPCELL_ROW_12_87 VDD VSS TAPCELL_X1
XTAP_TAPCELL_ROW_12_88 VDD VSS TAPCELL_X1
XTAP_TAPCELL_ROW_13_89 VDD VSS TAPCELL_X1
XTAP_TAPCELL_ROW_14_90 VDD VSS TAPCELL_X1
XTAP_TAPCELL_ROW_14_91 VDD VSS TAPCELL_X1
XTAP_TAPCELL_ROW_15_92 VDD VSS TAPCELL_X1
XTAP_TAPCELL_ROW_16_93 VDD VSS TAPCELL_X1
XTAP_TAPCELL_ROW_16_94 VDD VSS TAPCELL_X1
XTAP_TAPCELL_ROW_17_95 VDD VSS TAPCELL_X1
XTAP_TAPCELL_ROW_18_96 VDD VSS TAPCELL_X1
XTAP_TAPCELL_ROW_18_97 VDD VSS TAPCELL_X1
XTAP_TAPCELL_ROW_19_98 VDD VSS TAPCELL_X1
XTAP_TAPCELL_ROW_20_99 VDD VSS TAPCELL_X1
XTAP_TAPCELL_ROW_20_100 VDD VSS TAPCELL_X1
XTAP_TAPCELL_ROW_21_101 VDD VSS TAPCELL_X1
XTAP_TAPCELL_ROW_22_102 VDD VSS TAPCELL_X1
XTAP_TAPCELL_ROW_22_103 VDD VSS TAPCELL_X1
XTAP_TAPCELL_ROW_23_104 VDD VSS TAPCELL_X1
XTAP_TAPCELL_ROW_24_105 VDD VSS TAPCELL_X1
XTAP_TAPCELL_ROW_24_106 VDD VSS TAPCELL_X1
XTAP_TAPCELL_ROW_25_107 VDD VSS TAPCELL_X1
XTAP_TAPCELL_ROW_26_108 VDD VSS TAPCELL_X1
XTAP_TAPCELL_ROW_26_109 VDD VSS TAPCELL_X1
XTAP_TAPCELL_ROW_27_110 VDD VSS TAPCELL_X1
XTAP_TAPCELL_ROW_28_111 VDD VSS TAPCELL_X1
XTAP_TAPCELL_ROW_28_112 VDD VSS TAPCELL_X1
XTAP_TAPCELL_ROW_29_113 VDD VSS TAPCELL_X1
XTAP_TAPCELL_ROW_30_114 VDD VSS TAPCELL_X1
XTAP_TAPCELL_ROW_30_115 VDD VSS TAPCELL_X1
XTAP_TAPCELL_ROW_31_116 VDD VSS TAPCELL_X1
XTAP_TAPCELL_ROW_32_117 VDD VSS TAPCELL_X1
XTAP_TAPCELL_ROW_32_118 VDD VSS TAPCELL_X1
XTAP_TAPCELL_ROW_33_119 VDD VSS TAPCELL_X1
XTAP_TAPCELL_ROW_33_120 VDD VSS TAPCELL_X1
XTAP_TAPCELL_ROW_33_121 VDD VSS TAPCELL_X1
Xgain52 net51 net52 _unconnected_2 _unconnected_3 BUF_X4
Xfanout51 net56 net51 _unconnected_4 _unconnected_5 BUF_X1
Xfanout50 b[1] net50 _unconnected_6 _unconnected_7 CLKBUF_X2
Xfanout49 net50 net49 _unconnected_8 _unconnected_9 BUF_X1
Xgain48 net47 net48 _unconnected_10 _unconnected_11 BUF_X4
Xfanout47 net50 net47 _unconnected_12 _unconnected_13 BUF_X2
Xfanout46 net50 net46 _unconnected_14 _unconnected_15 BUF_X2
Xgain45 net44 net45 _unconnected_16 _unconnected_17 BUF_X4
Xfanout44 net46 net44 _unconnected_18 _unconnected_19 BUF_X2
Xfanout43 rst_n net43 _unconnected_20 _unconnected_21 CLKBUF_X2
Xfanout42 net43 net42 _unconnected_22 _unconnected_23 BUF_X2
Xgain41 _188_ net41 _unconnected_24 _unconnected_25 BUF_X2
Xgain40 _185_ net40 _unconnected_26 _unconnected_27 BUF_X2
Xfanout53 net56 net53 _unconnected_28 _unconnected_29 BUF_X1
Xgain54 net53 net54 _unconnected_30 _unconnected_31 BUF_X2
Xfanout55 net56 net55 _unconnected_32 _unconnected_33 BUF_X2
Xfanout56 b[0] net56 _unconnected_34 _unconnected_35 BUF_X1
Xfanout57 net80 net57 _unconnected_36 _unconnected_37 BUF_X2
Xgain58 net57 net58 _unconnected_38 _unconnected_39 BUF_X4
Xfanout59 net114 net59 _unconnected_40 _unconnected_41 BUF_X1
Xgain60 net59 net60 _unconnected_42 _unconnected_43 BUF_X4
X_252__61 net61 _unconnected_44 _unconnected_45 LOGIC0_X1
X_253__62 net62 _unconnected_46 _unconnected_47 LOGIC0_X1
X_398__63 net63 _unconnected_48 _unconnected_49 LOGIC0_X1
X_415__64 net64 _unconnected_50 _unconnected_51 LOGIC0_X1
X_460__65 net65 _unconnected_52 _unconnected_53 LOGIC0_X1
Xclkbuf_1_0__f_clk clknet_0_clk clknet_1_0__leaf_clk _unconnected_54
+ _unconnected_55 CLKBUF_X3
Xclkbuf_1_1__f_clk clknet_0_clk clknet_1_1__leaf_clk _unconnected_56
+ _unconnected_57 CLKBUF_X3
Xhold66 net128 net129 _unconnected_58 _unconnected_59 CLKBUF_X1
Xhold67 net130 net131 _unconnected_60 _unconnected_61 CLKBUF_X1
Xhold68 net132 net133 _unconnected_62 _unconnected_63 CLKBUF_X1
Xhold69 net134 net135 _unconnected_64 _unconnected_65 CLKBUF_X1
Xhold70 net136 net137 _unconnected_66 _unconnected_67 CLKBUF_X1
Xhold71 net138 net139 _unconnected_68 _unconnected_69 CLKBUF_X1
Xhold72 net140 net141 _unconnected_70 _unconnected_71 CLKBUF_X1
Xhold73 net142 net143 _unconnected_72 _unconnected_73 CLKBUF_X1
Xhold74 net144 net145 _unconnected_74 _unconnected_75 CLKBUF_X1
Xhold75 net146 net147 _unconnected_76 _unconnected_77 CLKBUF_X1
Xhold76 b[7] net76 _unconnected_78 _unconnected_79 CLKBUF_X1
Xhold77 _160_ net77 _unconnected_80 _unconnected_81 CLKBUF_X1
Xhold78 _161_ net78 _unconnected_82 _unconnected_83 CLKBUF_X1
Xhold79 _010_ net79 _unconnected_84 _unconnected_85 CLKBUF_X1
Xhold80 a[7] net80 _unconnected_86 _unconnected_87 CLKBUF_X1
Xhold81 _180_ net81 _unconnected_88 _unconnected_89 CLKBUF_X1
Xhold82 _156_ net82 _unconnected_90 _unconnected_91 CLKBUF_X1
Xhold83 net102 net83 _unconnected_92 _unconnected_93 CLKBUF_X1
Xhold84 _009_ net84 _unconnected_94 _unconnected_95 CLKBUF_X1
Xhold85 opcode[2] net85 _unconnected_96 _unconnected_97 CLKBUF_X1
Xhold86 _220_ net86 _unconnected_98 _unconnected_99 CLKBUF_X1
Xhold87 _222_ net87 _unconnected_100 _unconnected_101 CLKBUF_X1
Xhold88 _069_ net88 _unconnected_102 _unconnected_103 CLKBUF_X1
Xhold89 _002_ net89 _unconnected_104 _unconnected_105 CLKBUF_X1
Xhold90 a[0] net90 _unconnected_106 _unconnected_107 CLKBUF_X1
Xhold91 _225_ net91 _unconnected_108 _unconnected_109 CLKBUF_X1
Xhold92 _018_ net92 _unconnected_110 _unconnected_111 CLKBUF_X1
Xhold93 _024_ net93 _unconnected_112 _unconnected_113 CLKBUF_X1
Xhold94 _045_ net94 _unconnected_114 _unconnected_115 CLKBUF_X1
Xhold95 _001_ net95 _unconnected_116 _unconnected_117 CLKBUF_X1
Xhold96 opcode[0] net96 _unconnected_118 _unconnected_119
+ CLKBUF_X1
Xhold97 _071_ net97 _unconnected_120 _unconnected_121 CLKBUF_X1
Xhold98 _084_ net98 _unconnected_122 _unconnected_123 CLKBUF_X1
Xhold99 _003_ net99 _unconnected_124 _unconnected_125 CLKBUF_X1
Xhold100 b[6] net100 _unconnected_126 _unconnected_127 CLKBUF_X1
Xhold101 _182_ net101 _unconnected_128 _unconnected_129 CLKBUF_X1
Xhold102 _157_ net102 _unconnected_130 _unconnected_131 CLKBUF_X1
Xhold103 a[5] net103 _unconnected_132 _unconnected_133 CLKBUF_X1
Xhold104 _214_ net104 _unconnected_134 _unconnected_135 CLKBUF_X1
Xhold105 _134_ net105 _unconnected_136 _unconnected_137 CLKBUF_X1
Xhold106 _144_ net106 _unconnected_138 _unconnected_139 CLKBUF_X1
Xhold107 _007_ net107 _unconnected_140 _unconnected_141 CLKBUF_X1
Xhold108 b[2] net108 _unconnected_142 _unconnected_143 CLKBUF_X1
Xhold109 _029_ net109 _unconnected_144 _unconnected_145 CLKBUF_X1
Xhold110 _128_ net110 _unconnected_146 _unconnected_147 CLKBUF_X1
Xhold111 _129_ net111 _unconnected_148 _unconnected_149 CLKBUF_X1
Xhold112 _130_ net112 _unconnected_150 _unconnected_151 CLKBUF_X1
Xhold113 _006_ net113 _unconnected_152 _unconnected_153 CLKBUF_X1
Xhold114 a[4] net114 _unconnected_154 _unconnected_155 CLKBUF_X1
Xhold115 _108_ net115 _unconnected_156 _unconnected_157 CLKBUF_X1
Xhold116 _109_ net116 _unconnected_158 _unconnected_159 CLKBUF_X1
Xhold117 _110_ net117 _unconnected_160 _unconnected_161 CLKBUF_X1
Xhold118 _114_ net118 _unconnected_162 _unconnected_163 CLKBUF_X1
Xhold119 _115_ net119 _unconnected_164 _unconnected_165 CLKBUF_X1
Xhold120 _005_ net120 _unconnected_166 _unconnected_167 CLKBUF_X1
Xhold121 a[3] net121 _unconnected_168 _unconnected_169 CLKBUF_X1
Xhold122 _189_ net122 _unconnected_170 _unconnected_171 CLKBUF_X1
Xhold123 _190_ net123 _unconnected_172 _unconnected_173 CLKBUF_X1
Xhold124 _097_ net124 _unconnected_174 _unconnected_175 CLKBUF_X1
Xhold125 _098_ net125 _unconnected_176 _unconnected_177 CLKBUF_X1
Xhold126 _099_ net126 _unconnected_178 _unconnected_179 CLKBUF_X1
Xhold127 _004_ net127 _unconnected_180 _unconnected_181 CLKBUF_X1
Xhold128 net153 net128 _unconnected_182 _unconnected_183 CLKBUF_X1
Xhold129 net129 result[4] _unconnected_184 _unconnected_185
+ CLKBUF_X1
Xhold130 net154 net130 _unconnected_186 _unconnected_187 CLKBUF_X1
Xhold131 net131 zero_flag _unconnected_188 _unconnected_189
+ CLKBUF_X1
Xhold132 net155 net132 _unconnected_190 _unconnected_191 CLKBUF_X1
Xhold133 net133 result[3] _unconnected_192 _unconnected_193
+ CLKBUF_X1
Xhold134 net157 net134 _unconnected_194 _unconnected_195 CLKBUF_X1
Xhold135 net135 result[5] _unconnected_196 _unconnected_197
+ CLKBUF_X1
Xhold136 net156 net136 _unconnected_198 _unconnected_199 CLKBUF_X1
Xhold137 net137 result[7] _unconnected_200 _unconnected_201
+ CLKBUF_X1
Xhold138 net158 net138 _unconnected_202 _unconnected_203 CLKBUF_X1
Xhold139 net139 result[6] _unconnected_204 _unconnected_205
+ CLKBUF_X1
Xhold140 net159 net140 _unconnected_206 _unconnected_207 CLKBUF_X1
Xhold141 net141 result[0] _unconnected_208 _unconnected_209
+ CLKBUF_X1
Xhold142 net160 net142 _unconnected_210 _unconnected_211 CLKBUF_X1
Xhold143 net143 result[1] _unconnected_212 _unconnected_213
+ CLKBUF_X1
Xhold144 net161 net144 _unconnected_214 _unconnected_215 CLKBUF_X1
Xhold145 net145 result[2] _unconnected_216 _unconnected_217
+ CLKBUF_X1
Xhold146 net162 net146 _unconnected_218 _unconnected_219 CLKBUF_X1
Xhold147 net147 overflow_flag _unconnected_220 _unconnected_221
+ CLKBUF_X1
Xhold148 opcode[0] net148 _unconnected_222 _unconnected_223
+ CLKBUF_X1
Xhold149 a[2] net149 _unconnected_224 _unconnected_225 CLKBUF_X1
Xhold150 _193_ net150 _unconnected_226 _unconnected_227 CLKBUF_X1
Xhold151 opcode[3] net151 _unconnected_228 _unconnected_229
+ CLKBUF_X1
Xhold152 a[6] net152 _unconnected_230 _unconnected_231 CLKBUF_X1
Xhold153 net66 net153 _unconnected_232 _unconnected_233 CLKBUF_X1
Xhold154 net67 net154 _unconnected_234 _unconnected_235 CLKBUF_X1
Xhold155 net68 net155 _unconnected_236 _unconnected_237 CLKBUF_X1
Xhold156 net70 net156 _unconnected_238 _unconnected_239 CLKBUF_X1
Xhold157 net69 net157 _unconnected_240 _unconnected_241 CLKBUF_X1
Xhold158 net71 net158 _unconnected_242 _unconnected_243 CLKBUF_X1
Xhold159 net72 net159 _unconnected_244 _unconnected_245 CLKBUF_X1
Xhold160 net73 net160 _unconnected_246 _unconnected_247 CLKBUF_X1
Xhold161 net74 net161 _unconnected_248 _unconnected_249 CLKBUF_X1
Xhold162 net75 net162 _unconnected_250 _unconnected_251 CLKBUF_X1
XFILLER_0_65 _unconnected_252 _unconnected_253 FILLCELL_X8
XFILLER_0_77 _unconnected_254 _unconnected_255 FILLCELL_X1
XFILLER_0_143 _unconnected_256 _unconnected_257 FILLCELL_X8
XFILLER_0_155 _unconnected_258 _unconnected_259 FILLCELL_X1
XFILLER_0_221 _unconnected_260 _unconnected_261 FILLCELL_X8
XFILLER_0_233 _unconnected_262 _unconnected_263 FILLCELL_X1
XFILLER_0_251 _unconnected_264 _unconnected_265 FILLCELL_X8
XFILLER_1_145 _unconnected_266 _unconnected_267 FILLCELL_X8
XFILLER_1_260 _unconnected_268 _unconnected_269 FILLCELL_X1
XFILLER_2_65 _unconnected_270 _unconnected_271 FILLCELL_X8
XFILLER_2_77 _unconnected_272 _unconnected_273 FILLCELL_X1
XFILLER_2_223 _unconnected_274 _unconnected_275 FILLCELL_X8
XFILLER_2_252 _unconnected_276 _unconnected_277 FILLCELL_X8
XFILLER_2_260 _unconnected_278 _unconnected_279 FILLCELL_X1
XFILLER_3_145 _unconnected_280 _unconnected_281 FILLCELL_X8
XFILLER_3_260 _unconnected_282 _unconnected_283 FILLCELL_X1
XFILLER_4_65 _unconnected_284 _unconnected_285 FILLCELL_X8
XFILLER_4_77 _unconnected_286 _unconnected_287 FILLCELL_X1
XFILLER_4_223 _unconnected_288 _unconnected_289 FILLCELL_X8
XFILLER_4_252 _unconnected_290 _unconnected_291 FILLCELL_X8
XFILLER_4_260 _unconnected_292 _unconnected_293 FILLCELL_X1
XFILLER_5_145 _unconnected_294 _unconnected_295 FILLCELL_X8
XFILLER_5_260 _unconnected_296 _unconnected_297 FILLCELL_X1
XFILLER_6_65 _unconnected_298 _unconnected_299 FILLCELL_X8
XFILLER_6_77 _unconnected_300 _unconnected_301 FILLCELL_X1
XFILLER_6_223 _unconnected_302 _unconnected_303 FILLCELL_X8
XFILLER_6_252 _unconnected_304 _unconnected_305 FILLCELL_X8
XFILLER_6_260 _unconnected_306 _unconnected_307 FILLCELL_X1
XFILLER_7_145 _unconnected_308 _unconnected_309 FILLCELL_X8
XFILLER_7_260 _unconnected_310 _unconnected_311 FILLCELL_X1
XFILLER_8_65 _unconnected_312 _unconnected_313 FILLCELL_X8
XFILLER_8_77 _unconnected_314 _unconnected_315 FILLCELL_X1
XFILLER_8_223 _unconnected_316 _unconnected_317 FILLCELL_X8
XFILLER_8_252 _unconnected_318 _unconnected_319 FILLCELL_X8
XFILLER_8_260 _unconnected_320 _unconnected_321 FILLCELL_X1
XFILLER_9_81 _unconnected_322 _unconnected_323 FILLCELL_X8
XFILLER_9_95 _unconnected_324 _unconnected_325 FILLCELL_X8
XFILLER_9_107 _unconnected_326 _unconnected_327 FILLCELL_X1
XFILLER_9_117 _unconnected_328 _unconnected_329 FILLCELL_X1
XFILLER_9_260 _unconnected_330 _unconnected_331 FILLCELL_X1
XFILLER_10_65 _unconnected_332 _unconnected_333 FILLCELL_X8
XFILLER_10_77 _unconnected_334 _unconnected_335 FILLCELL_X1
XFILLER_10_124 _unconnected_336 _unconnected_337 FILLCELL_X1
XFILLER_10_252 _unconnected_338 _unconnected_339 FILLCELL_X8
XFILLER_10_260 _unconnected_340 _unconnected_341 FILLCELL_X1
XFILLER_11_33 _unconnected_342 _unconnected_343 FILLCELL_X8
XFILLER_11_48 _unconnected_344 _unconnected_345 FILLCELL_X8
XFILLER_11_86 _unconnected_346 _unconnected_347 FILLCELL_X8
XFILLER_11_100 _unconnected_348 _unconnected_349 FILLCELL_X1
XFILLER_11_108 _unconnected_350 _unconnected_351 FILLCELL_X1
XFILLER_11_156 _unconnected_352 _unconnected_353 FILLCELL_X1
XFILLER_11_260 _unconnected_354 _unconnected_355 FILLCELL_X1
XFILLER_12_115 _unconnected_356 _unconnected_357 FILLCELL_X1
XFILLER_12_124 _unconnected_358 _unconnected_359 FILLCELL_X1
XFILLER_12_128 _unconnected_360 _unconnected_361 FILLCELL_X8
XFILLER_12_138 _unconnected_362 _unconnected_363 FILLCELL_X1
XFILLER_12_220 _unconnected_364 _unconnected_365 FILLCELL_X8
XFILLER_12_234 _unconnected_366 _unconnected_367 FILLCELL_X1
XFILLER_12_252 _unconnected_368 _unconnected_369 FILLCELL_X8
XFILLER_12_260 _unconnected_370 _unconnected_371 FILLCELL_X1
XFILLER_13_17 _unconnected_372 _unconnected_373 FILLCELL_X8
XFILLER_13_25 _unconnected_374 _unconnected_375 FILLCELL_X1
XFILLER_13_32 _unconnected_376 _unconnected_377 FILLCELL_X8
XFILLER_13_44 _unconnected_378 _unconnected_379 FILLCELL_X1
XFILLER_13_52 _unconnected_380 _unconnected_381 FILLCELL_X1
XFILLER_13_79 _unconnected_382 _unconnected_383 FILLCELL_X1
XFILLER_13_95 _unconnected_384 _unconnected_385 FILLCELL_X1
XFILLER_13_100 _unconnected_386 _unconnected_387 FILLCELL_X8
XFILLER_13_116 _unconnected_388 _unconnected_389 FILLCELL_X1
XFILLER_14_1 _unconnected_390 _unconnected_391 FILLCELL_X8
XFILLER_14_22 _unconnected_392 _unconnected_393 FILLCELL_X1
XFILLER_14_39 _unconnected_394 _unconnected_395 FILLCELL_X1
XFILLER_14_45 _unconnected_396 _unconnected_397 FILLCELL_X1
XFILLER_14_53 _unconnected_398 _unconnected_399 FILLCELL_X1
XFILLER_14_58 _unconnected_400 _unconnected_401 FILLCELL_X1
XFILLER_14_69 _unconnected_402 _unconnected_403 FILLCELL_X8
XFILLER_14_77 _unconnected_404 _unconnected_405 FILLCELL_X1
XFILLER_14_112 _unconnected_406 _unconnected_407 FILLCELL_X1
XFILLER_14_252 _unconnected_408 _unconnected_409 FILLCELL_X8
XFILLER_14_260 _unconnected_410 _unconnected_411 FILLCELL_X1
XFILLER_15_3 _unconnected_412 _unconnected_413 FILLCELL_X1
XFILLER_15_51 _unconnected_414 _unconnected_415 FILLCELL_X1
XFILLER_15_85 _unconnected_416 _unconnected_417 FILLCELL_X1
XFILLER_15_106 _unconnected_418 _unconnected_419 FILLCELL_X1
XFILLER_15_142 _unconnected_420 _unconnected_421 FILLCELL_X1
XFILLER_15_162 _unconnected_422 _unconnected_423 FILLCELL_X8