*SPEF "ieee 1481-1999"
*DESIGN "alu"
*DATE "11:11:11 Fri 11 11, 1111"
*VENDOR "The OpenROAD Project"
*PROGRAM "OpenROAD"
*VERSION "1.0"
*DESIGN_FLOW "NAME_SCOPE LOCAL" "PIN_CAP NONE"
*DIVIDER /
*DELIMITER :
*BUS_DELIMITER []
*T_UNIT 1 NS
*C_UNIT 1 FF
*R_UNIT 1 KOHM
*L_UNIT 1 HENRY

*PORTS
a[0] I
a[1] I
a[2] I
a[3] I
a[4] I
a[5] I
a[6] I
a[7] I
b[0] I
b[1] I
b[2] I
b[3] I
b[4] I
b[5] I
b[6] I
b[7] I
clk I
opcode[0] I
opcode[1] I
opcode[2] I
opcode[3] I
overflow_flag O
result[0] O
result[1] O
result[2] O
result[3] O
result[4] O
result[5] O
result[6] O
result[7] O
rst_n I
zero_flag O

*D_NET clknet_0_clk 1.94646
*CONN
*I clkbuf_0_clk:Z O *D CLKBUF_X3
*I clkbuf_1_0__f_clk:A I *D CLKBUF_X3
*I clkbuf_1_1__f_clk:A I *D CLKBUF_X3
*CAP
1 clknet_0_clk:1 0.114412
2 clknet_0_clk:2 0.642877
3 clknet_0_clk:3 0.321439
4 clknet_0_clk:4 0.114412
5 clknet_0_clk:5 0.114412
6 clknet_0_clk:6 0
7 clknet_0_clk:7 0
8 clknet_0_clk:8 0.0419942
9 clknet_0_clk:9 0.0455359
10 clknet_0_clk:10 0
11 clknet_0_clk:11 0
12 clknet_0_clk:12 0
13 clknet_0_clk:13 0.321439
14 clknet_0_clk:14 0.0139981
15 clknet_0_clk:15 0
16 clknet_0_clk:16 0
17 clknet_0_clk:17 0.114412
*RES
1 clknet_0_clk:1 clknet_0_clk:2 0.003
2 clknet_0_clk:2 clknet_0_clk:3 0.00945
3 clknet_0_clk:3 clknet_0_clk:4 0.003
4 clknet_0_clk:5 clknet_0_clk:4 0.00315
5 clknet_0_clk:5 clknet_0_clk:6 0.003
6 clknet_0_clk:6 clknet_0_clk:7 0.005
7 clknet_0_clk:7 clknet_0_clk:8 0.005
8 clknet_0_clk:9 clknet_0_clk:10 0.005
9 clknet_0_clk:10 clknet_0_clk:11 0.005
10 clknet_0_clk:11 clknet_0_clk:12 0.003
11 clknet_0_clk:12 clknet_0_clk:13 0.003
12 clknet_0_clk:13 clknet_0_clk:2 0.00945
13 clknet_0_clk:14 clknet_0_clk:15 0.005
14 clknet_0_clk:15 clknet_0_clk:16 0.005
15 clknet_0_clk:16 clknet_0_clk:17 0.003
16 clknet_0_clk:17 clknet_0_clk:1 0.00315
17 clkbuf_1_1__f_clk:A clknet_0_clk:8 0.00944639
18 clkbuf_1_0__f_clk:A clknet_0_clk:9 0.00982139
19 clkbuf_0_clk:Z clknet_0_clk:14 0.00648213
*END

*D_NET _001_ 0.43793
*CONN
*I _327_:ZN O *D AOI21_X1
*I hold97:A I *D CLKBUF_X1
*CAP
1 _001_:1 0.0627384
2 _001_:2 0.0933196
3 _001_:3 0.0933196
4 _001_:4 0.062907
*RES
1 _001_:1 _001_:2 0.005
2 _001_:2 _001_:3 0.00749994
3 _001_:3 _001_:4 0.005
4 _327_:ZN _001_:1 0.0116428
5 hold97:A _001_:4 0.0116607
*END

*D_NET _002_ 0.677078
*CONN
*I _362_:ZN O *D AOI21_X1
*I hold107:A I *D CLKBUF_X1
*CAP
1 _002_:1 0.111985
2 _002_:2 0.0708336
3 _002_:3 0.0933196
4 _002_:4 0.0933196
5 _002_:5 0.0708336
6 _002_:6 0.133235
*RES
1 _002_:1 _002_:2 0.00749994
2 _002_:2 _002_:3 0.005
3 _002_:3 _002_:4 0.00749994
4 _002_:4 _002_:5 0.005
5 _002_:5 _002_:6 0.00749994
6 _362_:ZN _002_:1 0.00935711
7 hold107:A _002_:6 0.0116071
*END

*D_NET _003_ 0.0752186
*CONN
*I _383_:ZN O *D NOR2_X1
*I hold141:A I *D CLKBUF_X1
*CAP
1 _003_:1 0.0376093
*RES
1 _383_:ZN _003_:1 0.00694641
2 hold141:A _003_:1 0.0070357
*END

*D_NET _004_ 0.365072
*CONN
*I _403_:ZN O *D AOI21_X1
*I hold135:A I *D CLKBUF_X1
*CAP
1 _004_:1 0.0455359
2 _004_:2 0.0933196
3 _004_:3 0.0933196
4 _004_:4 0.0436807
*RES
1 _004_:1 _004_:2 0.005
2 _004_:2 _004_:3 0.00749994
3 _004_:3 _004_:4 0.005
4 _403_:ZN _004_:1 0.00982139
5 hold135:A _004_:4 0.00962496
*END

*D_NET _005_ 0.295251
*CONN
*I _419_:ZN O *D AOI21_X1
*I hold123:A I *D CLKBUF_X1
*CAP
1 _005_:1 0.0219247
2 _005_:2 0.0933196
3 _005_:3 0.0933196
4 _005_:4 0.0323811
*RES
1 _005_:1 _005_:2 0.005
2 _005_:2 _005_:3 0.00749994
3 _005_:3 _005_:4 0.005
4 _419_:ZN _005_:1 0.00732141
5 hold123:A _005_:4 0.00842854
*END

*D_NET _006_ 0.569926
*CONN
*I _437_:ZN O *D AOI21_X1
*I hold129:A I *D CLKBUF_X1
*CAP
1 _006_:1 0.00809527
2 _006_:2 0.186639
3 _006_:3 0.186639
4 _006_:4 0.0708336
5 _006_:5 0.0902286
*RES
1 _006_:1 _006_:2 0.005
2 _006_:2 _006_:3 0.0149999
3 _006_:3 _006_:4 0.005
4 _006_:4 _006_:5 0.00749994
5 _437_:ZN _006_:1 0.00585714
6 hold129:A _006_:5 0.00705355
*END

*D_NET _007_ 0.199346
*CONN
*I _455_:ZN O *D AOI21_X1
*I hold112:A I *D CLKBUF_X1
*CAP
1 _007_:1 0.099673
*RES
1 _455_:ZN _007_:1 0.0109642
2 hold112:A _007_:1 0.00958925
*END

*D_NET _008_ 0.500331
*CONN
*I _469_:Z O *D MUX2_X1
*I _484_:D I *D DFF_X2
*CAP
1 _008_:1 0.0930956
2 _008_:2 0.0708336
3 _008_:3 0.0933196
4 _008_:4 0.0933196
5 _008_:5 0.0637503
*RES
1 _008_:1 _008_:2 0.00749994
2 _008_:2 _008_:3 0.005
3 _008_:3 _008_:4 0.00749994
4 _008_:4 _008_:5 0.005
5 _484_:D _008_:5 0.0117499
6 _469_:Z _008_:1 0.00735712
*END

*D_NET _009_ 0.519557
*CONN
*I _472_:ZN O *D OAI21_X1
*I hold102:A I *D CLKBUF_X1
*CAP
1 _009_:1 0.104058
2 _009_:2 0.0708336
3 _009_:3 0.0933196
4 _009_:4 0.0933196
5 _009_:5 0.0624011
*RES
1 _009_:1 _009_:2 0.00749994
2 _009_:2 _009_:3 0.005
3 _009_:3 _009_:4 0.00749994
4 _009_:4 _009_:5 0.005
5 _472_:ZN _009_:1 0.00851783
6 hold102:A _009_:5 0.0116071
*END

*D_NET _010_ 0.152461
*CONN
*I _476_:ZN O *D AND2_X1
*I hold118:A I *D CLKBUF_X1
*CAP
1 _010_:1 0.0762305
*RES
1 _476_:ZN _010_:1 0.00849997
2 hold118:A _010_:1 0.00957139
*END

*D_NET _011_ 0.61299
*CONN
*I _311_:ZN O *D NOR2_X1
*I _312_:A2 I *D NAND2_X2
*I _378_:B I *D OAI211_X1
*CAP
1 _011_:1 0.107768
2 _011_:2 0.137957
3 _011_:3 0.0933196
4 _011_:4 0.0933196
5 _011_:5 0.0382839
*RES
1 _011_:2 _011_:1 0.00749994
2 _011_:2 _011_:3 0.005
3 _011_:3 _011_:4 0.00749994
4 _011_:4 _011_:5 0.005
5 _378_:B _011_:2 0.0121071
6 _312_:A2 _011_:5 0.00905354
7 _311_:ZN _011_:1 0.00891068
*END

*D_NET _012_ 4.97778
*CONN
*I _312_:ZN O *D NAND2_X2
*I _314_:A I *D AOI21_X1
*I _337_:A I *D AOI21_X1
*I _399_:A I *D AOI21_X1
*I _415_:A I *D AOI21_X1
*I _433_:A I *D AOI21_X1
*I _446_:A I *D AOI21_X1
*I _464_:A I *D AOI21_X1
*CAP
1 _012_:1 0.178433
2 _012_:2 0.141667
3 _012_:3 0.279959
4 _012_:4 0.279959
5 _012_:5 0.0441867
6 _012_:6 0.101191
7 _012_:7 0.0933196
8 _012_:8 0.0933196
9 _012_:9 0.283335
10 _012_:10 0.495835
11 _012_:11 0.0495835
12 _012_:12 0.186639
13 _012_:13 0.279959
14 _012_:14 0.0933196
15 _012_:15 0.0933196
16 _012_:16 0.0693158
17 _012_:17 0.108612
18 _012_:18 0.466598
19 _012_:19 0.466598
20 _012_:20 0.0708336
21 _012_:21 0.309813
22 _012_:22 0.0379466
23 _012_:23 0.0933196
24 _012_:24 0.0933196
25 _012_:25 0.0708336
26 _012_:26 0.0933196
27 _012_:27 0.0708336
*RES
1 _012_:1 _012_:2 0.0149999
2 _012_:1 _012_:3 0.005
3 _012_:3 _012_:4 0.0224998
4 _012_:4 _012_:5 0.005
5 _012_:6 _012_:7 0.005
6 _012_:7 _012_:8 0.00749994
7 _012_:8 _012_:9 0.005
8 _012_:9 _012_:10 0.0299998
9 _012_:11 _012_:12 0.005
10 _012_:12 _012_:13 0.0149999
11 _012_:13 _012_:2 0.005
12 _012_:10 _012_:14 0.005
13 _012_:14 _012_:15 0.00749994
14 _012_:15 _012_:16 0.005
15 _012_:17 _012_:18 0.005
16 _012_:18 _012_:19 0.0374997
17 _012_:19 _012_:20 0.005
18 _012_:21 _012_:20 0.00749994
19 _012_:22 _012_:23 0.005
20 _012_:23 _012_:24 0.00749994
21 _012_:24 _012_:25 0.005
22 _012_:17 _012_:25 0.00749994
23 _012_:13 _012_:26 0.00749994
24 _012_:26 _012_:27 0.005
25 _012_:27 _012_:6 0.00749994
26 _012_:10 _012_:21 0.0224998
27 _464_:A _012_:1 0.00889283
28 _446_:A _012_:5 0.00967853
29 _433_:A _012_:6 0.00821426
30 _415_:A _012_:11 0.01025
31 _399_:A _012_:16 0.0123392
32 _337_:A _012_:17 0.00899997
33 _314_:A _012_:22 0.00901783
34 _312_:ZN _012_:21 0.00780355
*END

*D_NET _013_ 0.130536
*CONN
*I _313_:ZN O *D OAI21_X1
*I _314_:B1 I *D AOI21_X1
*CAP
1 _013_:1 0.0652681
*RES
1 _314_:B1 _013_:1 0.00839283
2 _313_:ZN _013_:1 0.00851783
*END

*D_NET _014_ 0.703614
*CONN
*I _314_:ZN O *D AOI21_X1
*I _323_:A I *D AOI221_X2
*CAP
1 _014_:1 0.324823
2 _014_:2 0.310319
*RES
1 _014_:2 _014_:1 0.0299998
2 _323_:A _014_:2 0.00785712
3 _314_:ZN _014_:1 0.00939282
*END

*D_NET _015_ 1.13783
*CONN
*I _315_:ZN O *D NOR3_X4
*I _318_:B2 I *D OAI21_X1
*I _354_:A2 I *D AND2_X1
*I hold99:A I *D CLKBUF_X1
*CAP
1 _015_:1 0.0180457
2 _015_:2 0.373278
3 _015_:3 0.0933196
4 _015_:4 0.0804468
5 _015_:5 0.0971433
6 _015_:6 0.0708336
7 _015_:7 0.279959
*RES
1 _015_:1 _015_:2 0.005
2 _015_:2 _015_:3 0.00749994
3 _015_:3 _015_:4 0.005
4 _015_:6 _015_:5 0.00749994
5 _015_:6 _015_:7 0.005
6 _015_:7 _015_:2 0.0224998
7 _315_:ZN _015_:4 0.00708927
8 hold99:A _015_:1 0.0069107
9 _354_:A2 _015_:4 0.0114285
10 _318_:B2 _015_:5 0.00778569
*END

*D_NET _016_ 4.83207
*CONN
*I _316_:ZN O *D NOR4_X4
*I _318_:B1 I *D OAI21_X1
*I _343_:C1 I *D AOI221_X1
*I _400_:C2 I *D AOI221_X2
*I _416_:C2 I *D AOI221_X2
*I _434_:B2 I *D AOI221_X1
*I _452_:C2 I *D AOI211_X1
*I _467_:B1 I *D AOI21_X1
*I hold137:A I *D CLKBUF_X1
*CAP
1 _016_:1 0.360071
2 _016_:2 0.148413
3 _016_:3 0.109455
4 _016_:4 0.466598
5 _016_:5 0.186639
6 _016_:6 0.032887
7 _016_:7 0.344218
8 _016_:8 0.212501
9 _016_:9 0.0059028
10 _016_:10 0.279959
11 _016_:11 0.0470538
12 _016_:12 0.0933196
13 _016_:13 0.279959
14 _016_:14 0.0242858
15 _016_:15 0.0933196
16 _016_:16 0.0933196
17 _016_:17 0.141667
18 _016_:18 0.178939
19 _016_:19 0.466598
20 _016_:20 0.466598
21 _016_:21 0.186639
22 _016_:22 0.283335
*RES
1 _016_:1 _016_:2 0.00749994
2 _016_:3 _016_:4 0.005
3 _016_:4 _016_:5 0.0149999
4 _016_:5 _016_:6 0.005
5 _016_:3 _016_:7 0.00749994
6 _016_:7 _016_:8 0.0224998
7 _016_:9 _016_:10 0.005
8 _016_:10 _016_:4 0.0224998
9 _016_:11 _016_:12 0.005
10 _016_:12 _016_:13 0.00749994
11 _016_:13 _016_:8 0.005
12 _016_:14 _016_:15 0.005
13 _016_:15 _016_:16 0.00749994
14 _016_:16 _016_:17 0.005
15 _016_:17 _016_:18 0.0149999
16 _016_:18 _016_:19 0.005
17 _016_:19 _016_:20 0.0374997
18 _016_:20 _016_:2 0.005
19 _016_:13 _016_:21 0.0149999
20 _016_:21 _016_:22 0.005
21 _016_:22 _016_:1 0.0299998
22 _316_:ZN _016_:2 0.0132142
23 hold137:A _016_:1 0.005625
24 _467_:B1 _016_:6 0.00848211
25 _452_:C2 _016_:3 0.00908925
26 _434_:B2 _016_:7 0.0114464
27 _416_:C2 _016_:9 0.005625
28 _400_:C2 _016_:11 0.0099821
29 _343_:C1 _016_:14 0.00757141
30 _318_:B1 _016_:18 0.0089464
*END

*D_NET _017_ 0.737002
*CONN
*I _317_:Z O *D XOR2_X1
*I _318_:A I *D OAI21_X1
*CAP
1 _017_:1 0.0448613
2 _017_:2 0.279959
3 _017_:3 0.279959
4 _017_:4 0.0436807
*RES
1 _017_:1 _017_:2 0.005
2 _017_:2 _017_:3 0.0224998
3 _017_:3 _017_:4 0.005
4 _318_:A _017_:4 0.00962496
5 _317_:Z _017_:1 0.00974996
*END

*D_NET _018_ 0.712721
*CONN
*I _318_:ZN O *D OAI21_X1
*I _324_:A1 I *D NAND2_X1
*CAP
1 _018_:1 0.320607
2 _018_:2 0.319089
*RES
1 _018_:2 _018_:1 0.0299998
2 _324_:A1 _018_:2 0.00878568
3 _318_:ZN _018_:1 0.0089464
*END

*D_NET _019_ 0.541819
*CONN
*I _319_:Z O *D MUX2_X1
*I _322_:A I *D MUX2_X1
*I _371_:B I *D MUX2_X1
*CAP
1 _019_:1 0.116707
2 _019_:2 0.0708336
3 _019_:3 0.0933196
4 _019_:4 0.0933196
5 _019_:5 0.0608832
*RES
1 _019_:1 _019_:2 0.00749994
2 _019_:2 _019_:3 0.005
3 _019_:3 _019_:4 0.00749994
4 _019_:4 _019_:5 0.005
5 _371_:B _019_:5 0.00978568
6 _322_:A _019_:5 0.0066607
7 _319_:Z _019_:1 0.0098571
*END

*D_NET _020_ 0.540133
*CONN
*I _320_:ZN O *D NAND2_X1
*I _321_:A2 I *D NAND2_X1
*I _374_:A I *D OAI21_X1
*CAP
1 _020_:1 0.0389585
2 _020_:2 0.0933196
3 _020_:3 0.0933196
4 _020_:4 0.11131
5 _020_:5 0.0973119
*RES
1 _020_:1 _020_:2 0.005
2 _020_:2 _020_:3 0.00749994
3 _020_:3 _020_:4 0.005
4 _020_:4 _020_:5 0.00749994
5 _374_:A _020_:1 0.00912497
6 _321_:A2 _020_:4 0.00928568
7 _320_:ZN _020_:5 0.00780355
*END

*D_NET _021_ 0.585669
*CONN
*I _321_:ZN O *D NAND2_X1
*I _322_:B I *D MUX2_X1
*CAP
1 _021_:1 0.0861809
2 _021_:2 0.0708336
3 _021_:3 0.0933196
4 _021_:4 0.0933196
5 _021_:5 0.0708336
6 _021_:6 0.113334
*RES
1 _021_:1 _021_:2 0.00749994
2 _021_:2 _021_:3 0.005
3 _021_:3 _021_:4 0.00749994
4 _021_:4 _021_:5 0.005
5 _021_:5 _021_:6 0.00749994
6 _322_:B _021_:1 0.00662499
7 _321_:ZN _021_:6 0.00949996
*END

*D_NET _022_ 0.639073
*CONN
*I _322_:Z O *D MUX2_X1
*I _323_:B1 I *D AOI221_X2
*CAP
1 _022_:1 0.0269842
2 _022_:2 0.186639
3 _022_:3 0.186639
4 _022_:4 0.0708336
5 _022_:5 0.105913
*RES
1 _022_:1 _022_:2 0.005
2 _022_:2 _022_:3 0.0149999
3 _022_:3 _022_:4 0.005
4 _022_:4 _022_:5 0.00749994
5 _323_:B1 _022_:5 0.00871426
6 _322_:Z _022_:1 0.00785712
*END

*D_NET _023_ 0.331679
*CONN
*I _323_:ZN O *D AOI221_X2
*I _324_:A2 I *D NAND2_X1
*CAP
1 _023_:1 0.0382839
2 _023_:2 0.0933196
3 _023_:3 0.0933196
4 _023_:4 0.0342363
*RES
1 _023_:1 _023_:2 0.005
2 _023_:2 _023_:3 0.00749994
3 _023_:3 _023_:4 0.005
4 _324_:A2 _023_:4 0.00862497
5 _323_:ZN _023_:1 0.00905354
*END

*D_NET _024_ 0.24893
*CONN
*I _324_:ZN O *D NAND2_X1
*I _325_:B I *D AOI211_X2
*CAP
1 _024_:1 0.0963
2 _024_:2 0.0989984
*RES
1 _024_:1 _024_:2 0.00749994
2 _325_:B _024_:2 0.00798212
3 _324_:ZN _024_:1 0.00769641
*END

*D_NET _025_ 0.727336
*CONN
*I _325_:ZN O *D AOI211_X2
*I hold187:A I *D CLKBUF_X1
*CAP
1 _025_:1 0.139475
2 _025_:2 0.0708336
3 _025_:3 0.0933196
4 _025_:4 0.0933196
5 _025_:5 0.0708336
6 _025_:6 0.130874
*RES
1 _025_:1 _025_:2 0.00749994
2 _025_:2 _025_:3 0.005
3 _025_:3 _025_:4 0.00749994
4 _025_:4 _025_:5 0.005
5 _025_:5 _025_:6 0.00749994
6 _325_:ZN _025_:1 0.0122678
7 hold187:A _025_:6 0.0113571
*END

*D_NET _026_ 0.398128
*CONN
*I _326_:ZN O *D NAND2_X1
*I _472_:A I *D OAI21_X1
*CAP
1 _026_:1 0.0136608
2 _026_:2 0.0933196
3 _026_:3 0.0933196
4 _026_:4 0.0708336
5 _026_:5 0.0920837
*RES
1 _026_:1 _026_:2 0.005
2 _026_:2 _026_:3 0.00749994
3 _026_:3 _026_:4 0.005
4 _026_:5 _026_:4 0.00749994
5 _472_:A _026_:5 0.00724998
6 _326_:ZN _026_:1 0.00644642
*END

*D_NET _027_ 0.882152
*CONN
*I _328_:ZN O *D NAND2_X1
*I _337_:B1 I *D AOI21_X1
*I _363_:A I *D OAI21_X1
*CAP
1 _027_:1 0.0389585
2 _027_:2 0.373278
3 _027_:3 0.186639
4 _027_:4 0.018889
5 _027_:5 0.00995044
6 _027_:6 0.186639
*RES
1 _027_:1 _027_:2 0.005
2 _027_:2 _027_:3 0.0149999
3 _027_:3 _027_:4 0.005
4 _027_:5 _027_:6 0.005
5 _027_:6 _027_:2 0.0149999
6 _363_:A _027_:4 0.00699998
7 _337_:B1 _027_:1 0.00912497
8 _328_:ZN _027_:5 0.00605356
*END

*D_NET _028_ 0.796594
*CONN
*I _329_:Z O *D XOR2_X2
*I _331_:A I *D AOI21_X2
*I _343_:C2 I *D AOI221_X1
*I _353_:A3 I *D NAND3_X1
*CAP
1 _028_:1 0.189564
2 _028_:2 0.0708336
3 _028_:3 0.186639
4 _028_:4 0.186639
5 _028_:5 0.0220933
*RES
1 _028_:2 _028_:1 0.00749994
2 _028_:2 _028_:3 0.005
3 _028_:3 _028_:4 0.0149999
4 _028_:4 _028_:5 0.005
5 _353_:A3 _028_:1 0.00669642
6 _343_:C2 _028_:5 0.00733927
7 _331_:A _028_:1 0.00994639
8 _329_:Z _028_:1 0.0109285
*END

*D_NET _029_ 1.04755
*CONN
*I _330_:ZN O *D XNOR2_X2
*I _332_:A I *D OAI21_X1
*I _358_:B1 I *D AOI21_X1
*I _359_:B1 I *D OAI21_X1
*I _363_:B1 I *D OAI21_X1
*CAP
1 _029_:1 0.110129
2 _029_:2 0.186639
3 _029_:3 0.0933196
4 _029_:4 0.0961314
5 _029_:5 0.0615578
6 _029_:6 0.0933196
7 _029_:7 0.108443
8 _029_:8 0.10254
*RES
1 _029_:1 _029_:2 0.005
2 _029_:2 _029_:3 0.00749994
3 _029_:3 _029_:4 0.005
4 _029_:5 _029_:6 0.005
5 _029_:6 _029_:2 0.00749994
6 _029_:4 _029_:7 0.00749994
7 _029_:1 _029_:8 0.00749994
8 _363_:B1 _029_:4 0.00767855
9 _359_:B1 _029_:7 0.00898211
10 _358_:B1 _029_:8 0.00835712
11 _332_:A _029_:5 0.0115178
12 _330_:ZN _029_:1 0.00916068
*END

*D_NET _030_ 1.36798
*CONN
*I _331_:ZN O *D AOI21_X2
*I _333_:A2 I *D AND2_X1
*I _369_:B2 I *D OAI22_X4
*CAP
1 _030_:1 0.0548117
2 _030_:2 0.466598
3 _030_:3 0.0933196
4 _030_:4 0.0554863
5 _030_:5 0.107094
6 _030_:6 0.0708336
7 _030_:7 0.373278
*RES
1 _030_:1 _030_:2 0.005
2 _030_:2 _030_:3 0.00749994
3 _030_:3 _030_:4 0.005
4 _030_:6 _030_:5 0.00749994
5 _030_:6 _030_:7 0.005
6 _030_:7 _030_:2 0.0299998
7 _369_:B2 _030_:4 0.010875
8 _333_:A2 _030_:1 0.0108035
9 _331_:ZN _030_:5 0.00883926
*END

*D_NET _031_ 0.986269
*CONN
*I _332_:ZN O *D OAI21_X1
*I _356_:A1 I *D NAND3_X1
*I _368_:B I *D OAI211_X1
*CAP
1 _031_:1 0.0708336
2 _031_:2 0.279959
3 _031_:3 0.186639
4 _031_:4 0.037272
5 _031_:5 0.129862
6 _031_:6 0.0460419
7 _031_:7 0.0933196
*RES
1 _031_:1 _031_:2 0.005
2 _031_:2 _031_:3 0.0149999
3 _031_:3 _031_:4 0.005
4 _031_:1 _031_:5 0.00749994
5 _031_:6 _031_:7 0.005
6 _031_:7 _031_:2 0.00749994
7 _368_:B _031_:4 0.0089464
8 _356_:A1 _031_:5 0.01125
9 _332_:ZN _031_:6 0.00987496
*END

*D_NET _032_ 1.08173
*CONN
*I _333_:ZN O *D AND2_X1
*I _334_:B1 I *D AOI21_X1
*I _335_:C1 I *D AOI211_X1
*CAP
1 _032_:1 0.0539685
2 _032_:2 0.279959
3 _032_:3 0.279959
4 _032_:4 0.0708336
5 _032_:5 0.165616
6 _032_:6 0.112153
*RES
1 _032_:1 _032_:2 0.005
2 _032_:2 _032_:3 0.0224998
3 _032_:3 _032_:4 0.005
4 _032_:5 _032_:4 0.00749994
5 _032_:6 _032_:5 0.00749994
6 _335_:C1 _032_:5 0.00753569
7 _334_:B1 _032_:6 0.00937497
8 _333_:ZN _032_:1 0.0107142
*END

*D_NET _033_ 0.28783
*CONN
*I _334_:ZN O *D AOI21_X1
*I _474_:B1 I *D AOI21_X1
*CAP
1 _033_:1 0.0310319
2 _033_:2 0.0933196
3 _033_:3 0.0933196
4 _033_:4 0.0195636
*RES
1 _033_:1 _033_:2 0.005
2 _033_:2 _033_:3 0.00749994
3 _033_:3 _033_:4 0.005
4 _474_:B1 _033_:4 0.00707141
5 _334_:ZN _033_:1 0.00828569
*END

*D_NET _034_ 0.248592
*CONN
*I _335_:ZN O *D AOI211_X1
*I hold105:A I *D CLKBUF_X1
*CAP
1 _034_:1 0.0806154
2 _034_:2 0.114514
*RES
1 _034_:1 _034_:2 0.00749994
2 _335_:ZN _034_:1 0.00603571
3 hold105:A _034_:2 0.00962496
*END

*D_NET _035_ 0.437593
*CONN
*I _336_:ZN O *D OAI21_X1
*I _337_:B2 I *D AOI21_X1
*CAP
1 _035_:1 0.0983238
2 _035_:2 0.0708336
3 _035_:3 0.0933196
4 _035_:4 0.0933196
5 _035_:5 0.0271529
*RES
1 _035_:1 _035_:2 0.00749994
2 _035_:2 _035_:3 0.005
3 _035_:3 _035_:4 0.00749994
4 _035_:4 _035_:5 0.005
5 _337_:B2 _035_:1 0.00791069
6 _336_:ZN _035_:5 0.00787498
*END

*D_NET _036_ 0.442652
*CONN
*I _337_:ZN O *D AOI21_X1
*I _343_:A I *D AOI221_X1
*CAP
1 _036_:1 0.0286708
2 _036_:2 0.0933196
3 _036_:3 0.0933196
4 _036_:4 0.0708336
5 _036_:5 0.0993357
*RES
1 _036_:1 _036_:2 0.005
2 _036_:2 _036_:3 0.00749994
3 _036_:3 _036_:4 0.005
4 _036_:5 _036_:4 0.00749994
5 _343_:A _036_:5 0.00801783
6 _337_:ZN _036_:1 0.00803569
*END

*D_NET _037_ 0.620074
*CONN
*I _338_:ZN O *D NOR2_X1
*I _339_:A I *D AOI21_X1
*I _428_:A I *D AOI21_X1
*CAP
1 _037_:1 0.131211
2 _037_:2 0.131717
3 _037_:3 0.0246231
4 _037_:4 0.0933196
5 _037_:5 0.0933196
*RES
1 _037_:1 _037_:2 0.00749994
2 _037_:3 _037_:4 0.005
3 _037_:4 _037_:5 0.00749994
4 _037_:5 _037_:1 0.005
5 _428_:A _037_:2 0.0114464
6 _339_:A _037_:3 0.00760712
7 _338_:ZN _037_:1 0.0113928
*END

*D_NET _038_ 0.593316
*CONN
*I _339_:ZN O *D AOI21_X1
*I _342_:B1 I *D OAI21_X1
*I _395_:B1 I *D AOI21_X1
*CAP
1 _038_:1 0.250448
2 _038_:2 0.0900599
3 _038_:3 0.168652
*RES
1 _038_:1 _038_:2 0.00749994
2 _038_:3 _038_:1 0.0149999
3 _395_:B1 _038_:2 0.0070357
4 _342_:B1 _038_:1 0.00901783
5 _339_:ZN _038_:3 0.00785712
*END

*D_NET _039_ 0.314366
*CONN
*I _340_:ZN O *D NAND2_X1
*I _397_:A2 I *D NOR2_X1
*I _461_:C2 I *D AOI221_X1
*CAP
1 _039_:1 0.0910718
2 _039_:2 0.136945
*RES
1 _039_:2 _039_:1 0.00749994
2 _461_:C2 _039_:1 0.00714284
3 _397_:A2 _039_:2 0.00812498
4 _340_:ZN _039_:2 0.00887497
*END

*D_NET _040_ 0.277263
*CONN
*I _341_:ZN O *D NAND3_X1
*I _342_:A I *D OAI21_X1
*CAP
1 _040_:1 0.0942762
2 _040_:2 0.115189
*RES
1 _040_:1 _040_:2 0.00749994
2 _342_:A _040_:2 0.00969639
3 _341_:ZN _040_:1 0.00748212
*END

*D_NET _041_ 2.01223
*CONN
*I _342_:ZN O *D OAI21_X1
*I _343_:B1 I *D AOI221_X1
*I _434_:C2 I *D AOI221_X1
*CAP
1 _041_:1 0.425002
2 _041_:2 0.466598
3 _041_:3 0.373278
4 _041_:4 0.0416569
5 _041_:5 0.459913
6 _041_:6 0.0379466
7 _041_:7 0.0933196
*RES
1 _041_:1 _041_:2 0.005
2 _041_:2 _041_:3 0.0299998
3 _041_:3 _041_:4 0.005
4 _041_:1 _041_:5 0.0449996
5 _041_:6 _041_:7 0.005
6 _041_:7 _041_:2 0.00749994
7 _434_:C2 _041_:4 0.00941068
8 _343_:B1 _041_:5 0.0086964
9 _342_:ZN _041_:6 0.00901783
*END

*D_NET _042_ 0.546879
*CONN
*I _343_:ZN O *D AOI221_X1
*I _360_:A1 I *D NAND4_X1
*CAP
1 _042_:1 0.112491
2 _042_:2 0.0708336
3 _042_:3 0.0933196
4 _042_:4 0.0933196
5 _042_:5 0.0676292
*RES
1 _042_:1 _042_:2 0.00749994
2 _042_:2 _042_:3 0.005
3 _042_:3 _042_:4 0.00749994
4 _042_:4 _042_:5 0.005
5 _360_:A1 _042_:5 0.0121607
6 _343_:ZN _042_:1 0.00941068
*END

*D_NET _043_ 0.5968
*CONN
*I _344_:ZN O *D NOR2_X1
*I _345_:A I *D AOI21_X1
*I _350_:B I *D AOI211_X1
*CAP
1 _043_:1 0.0966373
2 _043_:2 0.0708336
3 _043_:3 0.0933196
4 _043_:4 0.0933196
5 _043_:5 0.108443
*RES
1 _043_:1 _043_:2 0.00749994
2 _043_:2 _043_:3 0.005
3 _043_:3 _043_:4 0.00749994
4 _043_:4 _043_:5 0.005
5 _350_:B _043_:1 0.00773212
6 _345_:A _043_:5 0.0101785
7 _344_:ZN _043_:5 0.0113035
*END

*D_NET _044_ 0.871702
*CONN
*I _345_:ZN O *D AOI21_X1
*I _346_:A2 I *D OR2_X1
*I _393_:B1 I *D OAI21_X1
*CAP
1 _044_:1 0.113502
2 _044_:2 0.105576
3 _044_:3 0.194287
4 _044_:4 0.141667
5 _044_:5 0.0933196
6 _044_:6 0.0933196
*RES
1 _044_:1 _044_:2 0.00749994
2 _044_:4 _044_:3 0.0149999
3 _044_:4 _044_:5 0.005
4 _044_:5 _044_:6 0.00749994
5 _044_:6 _044_:2 0.005
6 _393_:B1 _044_:1 0.00951782
7 _346_:A2 _044_:2 0.00867854
8 _345_:ZN _044_:3 0.0105714
*END

*D_NET _045_ 0.895423
*CONN
*I _346_:ZN O *D OR2_X1
*I _347_:A3 I *D NOR3_X1
*I _430_:B1 I *D AOI21_X1
*CAP
1 _045_:1 0.107094
2 _045_:2 0.113165
3 _045_:3 0.111647
4 _045_:4 0.0708336
5 _045_:5 0.186639
6 _045_:6 0.186639
*RES
1 _045_:1 _045_:2 0.00749994
2 _045_:4 _045_:3 0.00749994
3 _045_:4 _045_:5 0.005
4 _045_:5 _045_:6 0.0149999
5 _045_:6 _045_:2 0.005
6 _430_:B1 _045_:1 0.00883926
7 _347_:A3 _045_:2 0.00948211
8 _346_:ZN _045_:3 0.00932139
*END

*D_NET _046_ 0.440291
*CONN
*I _347_:ZN O *D NOR3_X1
*I _352_:A I *D AOI21_X1
*CAP
1 _046_:1 0.0187203
2 _046_:2 0.0933196
3 _046_:3 0.0933196
4 _046_:4 0.0708336
5 _046_:5 0.108106
*RES
1 _046_:1 _046_:2 0.005
2 _046_:2 _046_:3 0.00749994
3 _046_:3 _046_:4 0.005
4 _046_:5 _046_:4 0.00749994
5 _352_:A _046_:1 0.00698213
6 _347_:ZN _046_:5 0.0089464
*END

*D_NET _047_ 0.537434
*CONN
*I _348_:ZN O *D NOR2_X1
*I _349_:A I *D AOI21_X1
*CAP
1 _047_:1 0.105239
2 _047_:2 0.0708336
3 _047_:3 0.0933196
4 _047_:4 0.0933196
5 _047_:5 0.070159
*RES
1 _047_:1 _047_:2 0.00749994
2 _047_:2 _047_:3 0.005
3 _047_:3 _047_:4 0.00749994
4 _047_:4 _047_:5 0.005
5 _349_:A _047_:1 0.00864283
6 _348_:ZN _047_:5 0.0124285
*END

*D_NET _048_ 1.11265
*CONN
*I _349_:ZN O *D AOI21_X1
*I _351_:B1 I *D AOI21_X1
*I _394_:A2 I *D AND2_X1
*CAP
1 _048_:1 0.212501
2 _048_:2 0.186639
3 _048_:3 0.0933196
4 _048_:4 0.0209128
5 _048_:5 0.238811
6 _048_:6 0.109961
7 _048_:7 0.0708336
8 _048_:8 0.0933196
*RES
1 _048_:1 _048_:2 0.005
2 _048_:2 _048_:3 0.00749994
3 _048_:3 _048_:4 0.005
4 _048_:1 _048_:5 0.0224998
5 _048_:6 _048_:7 0.00749994
6 _048_:7 _048_:8 0.005
7 _048_:8 _048_:2 0.00749994
8 _394_:A2 _048_:4 0.00721427
9 _351_:B1 _048_:5 0.00778569
10 _349_:ZN _048_:6 0.00914282
*END

*D_NET _049_ 0.218235
*CONN
*I _350_:ZN O *D AOI211_X1
*I _351_:A I *D AOI21_X1
*CAP
1 _049_:1 0.0769051
2 _049_:2 0.103046
*RES
1 _049_:2 _049_:1 0.00749994
2 _351_:A _049_:2 0.00841069
3 _350_:ZN _049_:1 0.00564285
*END

*D_NET _050_ 0.470422
*CONN
*I _351_:ZN O *D AOI21_X1
*I _352_:B1 I *D AOI21_X1
*CAP
1 _050_:1 0.0357541
2 _050_:2 0.186639
3 _050_:3 0.186639
4 _050_:4 0.0128175
*RES
1 _050_:1 _050_:2 0.005
2 _050_:2 _050_:3 0.0149999
3 _050_:3 _050_:4 0.005
4 _352_:B1 _050_:4 0.00635713
5 _351_:ZN _050_:1 0.00878568
*END

*D_NET _051_ 0.793785
*CONN
*I _352_:ZN O *D AOI21_X1
*I _360_:A2 I *D NAND4_X1
*CAP
1 _051_:1 0.241846
2 _051_:2 0.212501
3 _051_:3 0.0933196
4 _051_:4 0.0933196
5 _051_:5 0.0617264
*RES
1 _051_:1 _051_:2 0.0224998
2 _051_:2 _051_:3 0.005
3 _051_:3 _051_:4 0.00749994
4 _051_:4 _051_:5 0.005
5 _360_:A2 _051_:5 0.0115357
6 _352_:ZN _051_:1 0.00810712
*END

*D_NET _052_ 0.542942
*CONN
*I _353_:ZN O *D NAND3_X1
*I _356_:A2 I *D NAND3_X1
*CAP
1 _052_:1 0.0193949
2 _052_:2 0.186639
3 _052_:3 0.186639
4 _052_:4 0.0654368
*RES
1 _052_:1 _052_:2 0.005
2 _052_:2 _052_:3 0.0149999
3 _052_:3 _052_:4 0.005
4 _356_:A2 _052_:4 0.0119285
5 _353_:ZN _052_:1 0.00705355
*END

*D_NET _053_ 3.52514
*CONN
*I _354_:ZN O *D AND2_X1
*I _356_:A3 I *D NAND3_X1
*I _390_:A1 I *D NAND2_X1
*I _406_:A1 I *D NAND3_X1
*I _441_:A1 I *D AND3_X1
*I _474_:B2 I *D AOI21_X1
*CAP
1 _053_:1 0.100854
2 _053_:2 0.0933196
3 _053_:3 0.0933196
4 _053_:4 0.141667
5 _053_:5 0.243533
6 _053_:6 0.302055
7 _053_:7 0.354168
8 _053_:8 0.0236112
9 _053_:9 0.0933196
10 _053_:10 0.0933196
11 _053_:11 0.141667
12 _053_:12 0.180794
13 _053_:13 0.186639
14 _053_:14 0.186639
15 _053_:15 0.0718455
16 _053_:16 0.466598
17 _053_:17 0.466598
18 _053_:18 0.0708336
*RES
1 _053_:1 _053_:2 0.005
2 _053_:2 _053_:3 0.00749994
3 _053_:3 _053_:4 0.005
4 _053_:5 _053_:4 0.0149999
5 _053_:6 _053_:7 0.0299998
6 _053_:8 _053_:9 0.005
7 _053_:9 _053_:10 0.00749994
8 _053_:10 _053_:11 0.005
9 _053_:11 _053_:12 0.0149999
10 _053_:12 _053_:13 0.005
11 _053_:13 _053_:14 0.0149999
12 _053_:14 _053_:7 0.005
13 _053_:15 _053_:16 0.005
14 _053_:16 _053_:17 0.0374997
15 _053_:17 _053_:18 0.005
16 _053_:1 _053_:18 0.00749994
17 _053_:7 _053_:5 0.00749994
18 _474_:B2 _053_:5 0.00828569
19 _441_:A1 _053_:6 0.00698213
20 _406_:A1 _053_:8 0.00749998
21 _390_:A1 _053_:12 0.00914282
22 _356_:A3 _053_:15 0.0126071
23 _354_:ZN _053_:1 0.00817855
*END

*D_NET _054_ 1.59364
*CONN
*I _355_:ZN O *D NAND2_X2
*I _381_:C1 I *D OAI211_X1
*I _435_:C1 I *D OAI211_X1
*I hold100:A I *D CLKBUF_X1
*CAP
1 _054_:1 0.212501
2 _054_:2 0.186639
3 _054_:3 0.0933196
4 _054_:4 0.0123116
5 _054_:5 0.262253
6 _054_:6 0.149425
7 _054_:7 0.327859
8 _054_:8 0.141667
9 _054_:9 0.0933196
*RES
1 _054_:1 _054_:2 0.005
2 _054_:2 _054_:3 0.00749994
3 _054_:3 _054_:4 0.005
4 _054_:5 _054_:1 0.0224998
5 _054_:7 _054_:6 0.0149999
6 _054_:8 _054_:7 0.0149999
7 _054_:8 _054_:9 0.005
8 _054_:9 _054_:2 0.00749994
9 _355_:ZN _054_:6 0.00582142
10 hold100:A _054_:4 0.00630356
11 _435_:C1 _054_:5 0.0102678
12 _381_:C1 _054_:7 0.00971425
*END

*D_NET _055_ 0.347085
*CONN
*I _356_:ZN O *D NAND3_X1
*I _360_:A3 I *D NAND4_X1
*CAP
1 _055_:1 0.118225
2 _055_:2 0.126151
*RES
1 _055_:1 _055_:2 0.00749994
2 _360_:A3 _055_:2 0.0108571
3 _356_:ZN _055_:1 0.0100178
*END

*D_NET _056_ 3.45622
*CONN
*I _357_:ZN O *D NAND2_X4
*I _358_:A I *D AOI21_X1
*I _367_:B2 I *D OAI21_X1
*I _386_:A1 I *D NOR2_X1
*I _409_:A1 I *D NOR2_X1
*I _426_:A1 I *D NOR2_X1
*I _444_:A1 I *D NOR2_X1
*I _468_:B2 I *D OAI221_X2
*I _475_:B2 I *D OAI21_X1
*CAP
1 _056_:1 0.422641
2 _056_:2 0.225318
3 _056_:3 0.0933196
4 _056_:4 0.0933196
5 _056_:5 0.0305259
6 _056_:6 0.383008
7 _056_:7 0.26259
8 _056_:8 0.0448613
9 _056_:9 0.653237
10 _056_:10 0.373278
11 _056_:11 0.0708336
12 _056_:12 0.108443
13 _056_:13 0.0708336
14 _056_:14 0.279959
*RES
1 _056_:2 _056_:1 0.0149999
2 _056_:2 _056_:3 0.005
3 _056_:3 _056_:4 0.00749994
4 _056_:4 _056_:5 0.005
5 _056_:1 _056_:6 0.0224998
6 _056_:6 _056_:7 0.0149999
7 _056_:8 _056_:9 0.005
8 _056_:9 _056_:10 0.0299998
9 _056_:10 _056_:11 0.005
10 _056_:7 _056_:11 0.00749994
11 _056_:13 _056_:12 0.00749994
12 _056_:13 _056_:14 0.005
13 _056_:14 _056_:9 0.0224998
14 _475_:B2 _056_:2 0.00830355
15 _468_:B2 _056_:5 0.00823212
16 _444_:A1 _056_:2 0.0105535
17 _426_:A1 _056_:1 0.00805355
18 _409_:A1 _056_:1 0.0091964
19 _386_:A1 _056_:6 0.00805355
20 _367_:B2 _056_:7 0.0103035
21 _358_:A _056_:12 0.00898211
22 _357_:ZN _056_:8 0.00974996
*END

*D_NET _057_ 0.331342
*CONN
*I _358_:ZN O *D AOI21_X1
*I _359_:A I *D OAI21_X1
*CAP
1 _057_:1 0.041151
2 _057_:2 0.0933196
3 _057_:3 0.0933196
4 _057_:4 0.0312005
*RES
1 _057_:1 _057_:2 0.005
2 _057_:2 _057_:3 0.00749994
3 _057_:3 _057_:4 0.005
4 _359_:A _057_:4 0.00830355
5 _358_:ZN _057_:1 0.00935711
*END

*D_NET _058_ 0.139306
*CONN
*I _359_:ZN O *D OAI21_X1
*I hold169:A I *D CLKBUF_X1
*CAP
1 _058_:1 0.0696531
*RES
1 _359_:ZN _058_:1 0.00994639
2 hold169:A _058_:1 0.00742855
*END

*D_NET _059_ 0.849661
*CONN
*I _360_:ZN O *D NAND4_X1
*I hold170:A I *D CLKBUF_X1
*CAP
1 _059_:1 0.0376093
2 _059_:2 0.279959
3 _059_:3 0.279959
4 _059_:4 0.0708336
5 _059_:5 0.107262
*RES
1 _059_:1 _059_:2 0.005
2 _059_:2 _059_:3 0.0224998
3 _059_:3 _059_:4 0.005
4 _059_:4 _059_:5 0.00749994
5 _360_:ZN _059_:1 0.00898211
6 hold170:A _059_:5 0.00885711
*END

*D_NET _060_ 0.713955
*CONN
*I _361_:ZN O *D NOR2_X1
*I _470_:A2 I *D AND4_X1
*I hold106:A I *D CLKBUF_X1
*CAP
1 _060_:1 0.0322124
2 _060_:2 0.0933196
3 _060_:3 0.186639
4 _060_:4 0.0178771
5 _060_:5 0.0933196
6 _060_:6 0.0708336
7 _060_:7 0.120249
*RES
1 _060_:1 _060_:2 0.005
2 _060_:2 _060_:3 0.00749994
3 _060_:3 _060_:4 0.005
4 _060_:3 _060_:5 0.00749994
5 _060_:5 _060_:6 0.005
6 _060_:7 _060_:6 0.00749994
7 _361_:ZN _060_:1 0.00841069
8 hold106:A _060_:4 0.00689284
9 _470_:A2 _060_:7 0.0102321
*END

*D_NET _061_ 1.42375
*CONN
*I _363_:ZN O *D OAI21_X1
*I _364_:A2 I *D OR2_X1
*I _365_:A2 I *D AND2_X1
*CAP
1 _061_:1 0.0969746
2 _061_:2 0.0708336
3 _061_:3 0.466598
4 _061_:4 0.559918
5 _061_:5 0.0369347
6 _061_:6 0.0933196
7 _061_:7 0.0180457
*RES
1 _061_:2 _061_:1 0.00749994
2 _061_:2 _061_:3 0.005
3 _061_:3 _061_:4 0.0374997
4 _061_:4 _061_:5 0.005
5 _061_:4 _061_:6 0.00749994
6 _061_:6 _061_:7 0.005
7 _365_:A2 _061_:5 0.00891068
8 _364_:A2 _061_:7 0.0069107
9 _363_:ZN _061_:1 0.00776783
*END

*D_NET _062_ 0.288731
*CONN
*I _364_:ZN O *D OR2_X1
*I _382_:B2 I *D AOI21_X1
*CAP
1 _062_:1 0.112997
2 _062_:2 0.102203
*RES
1 _062_:2 _062_:1 0.00749994
2 _382_:B2 _062_:2 0.0083214
3 _364_:ZN _062_:1 0.00946425
*END

*D_NET _063_ 0.989868
*CONN
*I _365_:ZN O *D AND2_X1
*I _367_:B1 I *D OAI21_X1
*I _384_:B2 I *D OAI21_X2
*I _385_:A3 I *D NOR3_X1
*CAP
1 _063_:1 0.177421
2 _063_:2 0.0933196
3 _063_:3 0.0933196
4 _063_:4 0.0313692
5 _063_:5 0.202045
6 _063_:6 0.0933196
7 _063_:7 0.0933196
8 _063_:8 0.0391271
*RES
1 _063_:1 _063_:2 0.005
2 _063_:2 _063_:3 0.00749994
3 _063_:3 _063_:4 0.005
4 _063_:1 _063_:5 0.0149999
5 _063_:5 _063_:6 0.005
6 _063_:6 _063_:7 0.00749994
7 _063_:7 _063_:8 0.005
8 _385_:A3 _063_:4 0.0083214
9 _384_:B2 _063_:1 0.00878568
10 _367_:B1 _063_:8 0.00914282
11 _365_:ZN _063_:5 0.0113928
*END

*D_NET _064_ 0.133572
*CONN
*I _366_:ZN O *D NAND2_X1
*I hold138:A I *D CLKBUF_X1
*CAP
1 _064_:1 0.066786
*RES
1 _366_:ZN _064_:1 0.00951782
2 hold138:A _064_:1 0.00755355
*END

*D_NET _065_ 0.176747
*CONN
*I _367_:ZN O *D OAI21_X1
*I hold139:A I *D CLKBUF_X1
*CAP
1 _065_:1 0.0883734
*RES
1 _367_:ZN _065_:1 0.0104821
2 hold139:A _065_:1 0.00887497
*END

*D_NET _066_ 0.51922
*CONN
*I _368_:ZN O *D OAI211_X1
*I _370_:A1 I *D NAND2_X1
*CAP
1 _066_:1 0.0979865
2 _066_:2 0.0708336
3 _066_:3 0.0933196
4 _066_:4 0.0933196
5 _066_:5 0.0683039
*RES
1 _066_:1 _066_:2 0.00749994
2 _066_:2 _066_:3 0.005
3 _066_:3 _066_:4 0.00749994
4 _066_:4 _066_:5 0.005
5 _370_:A1 _066_:5 0.0122321
6 _368_:ZN _066_:1 0.00787498
*END
