* CDL Netlist generated by OpenROAD

*.BUSDELIMITER [

.SUBCKT alu a[0] a[1] a[2] a[3] a[4] a[5] a[6] a[7] b[0] b[1]
+ b[2] b[3] b[4] b[5] b[6] b[7] clk opcode[0] opcode[1] opcode[2]
+ opcode[3] overflow_flag result[0] result[1] result[2] result[3]
+ result[4] result[5] result[6] result[7] rst_n zero_flag
X_239_ a[1] _162_ VDD VSS INV_X1
X_240_ net44 _163_ VDD VSS INV_X2
X_241_ net107 _164_ VDD VSS INV_X1
X_242_ net45 _165_ VDD VSS INV_X2
X_243_ a[5] _166_ VDD VSS INV_X1
X_244_ a[6] _167_ VDD VSS INV_X1
X_245_ b[2] _168_ VDD VSS INV_X2
X_246_ net74 _169_ VDD VSS INV_X1
X_247_ b[4] _170_ VDD VSS INV_X1
X_248_ b[5] _171_ VDD VSS INV_X1
X_249_ net65 _172_ VDD VSS INV_X1
X_250_ net80 _173_ VDD VSS INV_X1
X_251_ opcode[3] _174_ VDD VSS INV_X1
X_252_ net50 _175_ VDD VSS INV_X1
X_253_ net51 net49 _176_ VDD VSS NOR2_X2
X_254_ _176_ _177_ VDD VSS INV_X1
X_255_ net48 _172_ _178_ VDD VSS NAND2_X1
X_256_ net48 net65 _179_ VDD VSS NAND2_X1
X_257_ net48 net65 _180_ VDD VSS XOR2_X2
X_258_ net48 net65 _181_ VDD VSS XNOR2_X1
X_259_ _167_ net104 _182_ VDD VSS NOR2_X1
X_260_ a[6] b[6] _183_ VDD VSS OR2_X1
X_261_ a[6] net104 _184_ VDD VSS NAND2_X2
X_262_ _183_ _184_ _185_ VDD VSS AND2_X1
X_263_ _183_ _184_ _186_ VDD VSS NAND2_X1
X_264_ _164_ b[3] _187_ VDD VSS NOR2_X2
X_265_ net107 b[3] _188_ VDD VSS AND2_X1
X_266_ net107 b[3] _189_ VDD VSS NOR2_X2
X_267_ net108 _190_ VDD VSS INV_X1
X_268_ net41 net108 _191_ VDD VSS NOR2_X4
X_269_ a[2] _168_ _192_ VDD VSS NAND2_X1
X_270_ net138 b[2] _193_ VDD VSS OR2_X1
X_271_ a[2] b[2] _194_ VDD VSS NAND2_X1
X_272_ _193_ _194_ _195_ VDD VSS AND2_X1
X_273_ _193_ _194_ _196_ VDD VSS NAND2_X2
X_274_ a[1] net45 _197_ VDD VSS AND2_X1
X_275_ a[1] net45 _198_ VDD VSS XOR2_X2
X_276_ _198_ _169_ net43 _199_ VDD VSS AOI21_X2
X_277_ _162_ net45 _200_ VDD VSS NOR2_X1
X_278_ _196_ _199_ _200_ _201_ VDD VSS OAI21_X2
X_279_ _191_ _192_ _201_ _202_ VDD VSS AOI21_X4
X_280_ _187_ _202_ _203_ VDD VSS NOR2_X1
X_281_ _166_ _171_ _204_ VDD VSS NOR2_X1
X_282_ a[5] b[5] _205_ VDD VSS XOR2_X2
X_283_ a[5] b[5] _206_ VDD VSS XNOR2_X2
X_284_ net47 net114 _207_ VDD VSS NAND2_X1
X_285_ net47 net114 _208_ VDD VSS XOR2_X2
X_286_ net47 net114 _209_ VDD VSS XNOR2_X2
X_287_ _206_ _209_ _210_ VDD VSS NAND2_X1
X_288_ _206_ _209_ _187_ _202_ _211_ VDD VSS OAI211_X2
X_289_ net91 _170_ _212_ VDD VSS NAND2_X1
X_290_ _205_ net92 _213_ VDD VSS NOR2_X1
X_291_ _213_ _171_ net141 _214_ VDD VSS AOI21_X2
X_292_ net40 _211_ _214_ _215_ VDD VSS AOI21_X2
X_293_ net105 _215_ _216_ VDD VSS NOR2_X1
X_294_ _181_ _182_ _215_ _217_ VDD VSS OAI21_X1
X_295_ _178_ _217_ _218_ VDD VSS AND2_X1
X_296_ _178_ _217_ _219_ VDD VSS NAND2_X1
X_297_ _174_ net69 _220_ VDD VSS NAND2_X4
X_298_ net80 opcode[1] _221_ VDD VSS NAND2_X2
X_299_ net70 _221_ _222_ VDD VSS NOR2_X1
X_300_ net43 _169_ _223_ VDD VSS NOR2_X1
X_301_ net43 net74 _224_ VDD VSS AND2_X1
X_302_ net43 net74 _225_ VDD VSS NAND2_X1
X_303_ _163_ _169_ _226_ VDD VSS NAND2_X1
X_304_ _191_ _223_ _227_ VDD VSS NOR2_X1
X_305_ _180_ net40 _195_ _228_ VDD VSS NOR3_X1
X_306_ _199_ _227_ _228_ _011_ VDD VSS NAND3_X1
X_307_ net71 _011_ _210_ _012_ VDD VSS OAI21_X1
X_308_ _012_ _013_ VDD VSS INV_X1
X_309_ net144 net69 _014_ VDD VSS OR2_X4
X_310_ opcode[1] _014_ _015_ VDD VSS NOR2_X2
X_311_ opcode[1] _220_ _016_ VDD VSS NOR2_X2
X_312_ net80 opcode[1] net70 _017_ VDD VSS NOR3_X4
X_313_ net75 _226_ _015_ _017_ _018_ VDD VSS OAI211_X1
X_314_ _221_ _014_ _019_ VDD VSS NOR2_X4
X_315_ _226_ _019_ _020_ VDD VSS NAND2_X1
X_316_ _173_ opcode[1] _021_ VDD VSS NAND2_X2
X_317_ _014_ _021_ _022_ VDD VSS OR2_X2
X_318_ _022_ _023_ VDD VSS INV_X1
X_319_ net76 _020_ _022_ net75 _024_ VDD VSS OAI211_X1
X_320_ net45 _223_ a[1] net43 _025_ VDD VSS AOI211_X1
X_321_ a[2] _163_ _026_ VDD VSS AND2_X1
X_322_ _163_ _164_ _027_ VDD VSS NOR2_X1
X_323_ _026_ _027_ _028_ VDD VSS NOR2_X1
X_324_ b[2] net70 _021_ _029_ VDD VSS NOR3_X4
X_325_ b[2] _220_ _021_ _030_ VDD VSS OR3_X2
X_326_ _025_ _030_ _028_ net45 _031_ VDD VSS AOI211_X1
X_327_ _168_ net70 _021_ _032_ VDD VSS NOR3_X1
X_328_ _168_ _220_ _021_ _033_ VDD VSS OR3_X1
X_329_ net47 a[5] net44 _034_ VDD VSS MUX2_X1
X_330_ net44 _167_ _035_ VDD VSS NOR2_X1
X_331_ _035_ net48 net44 _036_ VDD VSS AOI21_X2
X_332_ net42 _034_ _037_ VDD VSS NOR2_X1
X_333_ _033_ _037_ _036_ net32 _038_ VDD VSS AOI211_X1
X_334_ net43 net45 _169_ _039_ VDD VSS NOR3_X1
X_335_ net80 _016_ _040_ VDD VSS NAND2_X1
X_336_ b[2] _040_ _041_ VDD VSS NOR2_X2
X_337_ _168_ net80 _016_ _042_ VDD VSS NAND3_X4
X_338_ _039_ _041_ _043_ VDD VSS AND2_X1
X_339_ _031_ _038_ _043_ _044_ VDD VSS OR3_X1
X_340_ net77 _044_ _219_ _013_ _045_ VDD VSS AOI211_X2
X_341_ _176_ net78 net27 _001_ VDD VSS AOI21_X1
X_342_ _221_ _014_ _162_ _165_ _046_ VDD VSS AOI211_X1
X_343_ _046_ _017_ _198_ _197_ _023_ _047_ VDD VSS AOI221_X1
X_344_ net44 _166_ _048_ VDD VSS NOR2_X1
X_345_ _048_ a[6] net35 _049_ VDD VSS AOI21_X2
X_346_ _163_ net48 _050_ VDD VSS NAND2_X1
X_347_ _163_ net42 net48 _051_ VDD VSS NAND3_X1
X_348_ _051_ _049_ net42 _052_ VDD VSS OAI21_X2
X_349_ net80 _015_ _053_ VDD VSS NAND2_X2
X_350_ net43 _169_ _198_ _054_ VDD VSS NAND3_X1
X_351_ _199_ _053_ _055_ VDD VSS NOR2_X1
X_352_ net137 opcode[1] _014_ _056_ VDD VSS NOR3_X1
X_353_ _173_ _015_ _057_ VDD VSS NAND2_X2
X_354_ _198_ _225_ _058_ VDD VSS XNOR2_X1
X_355_ _162_ net43 _059_ VDD VSS NOR2_X1
X_356_ _224_ _059_ _060_ VDD VSS NOR2_X1
X_357_ net32 _042_ _060_ _061_ VDD VSS NOR3_X1
X_358_ _059_ net37 a[2] _062_ VDD VSS AOI21_X1
X_359_ net107 net47 net44 _063_ VDD VSS MUX2_X1
X_360_ _029_ _063_ _165_ _064_ VDD VSS OAI21_X1
X_361_ _064_ _062_ _165_ _065_ VDD VSS AOI21_X1
X_362_ _061_ _052_ _032_ _066_ VDD VSS AOI21_X1
X_363_ _065_ _058_ _056_ _054_ _055_ _067_ VDD VSS AOI221_X1
X_364_ _047_ _066_ _067_ _068_ VDD VSS NAND3_X1
X_365_ _068_ net71 _218_ _069_ VDD VSS AOI21_X1
X_366_ _176_ net72 net27 _002_ VDD VSS AOI21_X1
X_367_ _196_ _199_ _200_ _070_ VDD VSS OR3_X1
X_368_ net80 _201_ _015_ _070_ _071_ VDD VSS NAND4_X1
X_369_ _197_ _198_ _224_ _072_ VDD VSS AOI21_X2
X_370_ _173_ _015_ _072_ _196_ _073_ VDD VSS OAI211_X1
X_371_ _073_ _072_ _196_ _074_ VDD VSS AOI21_X1
X_372_ net32 _033_ _036_ _075_ VDD VSS OR3_X1
X_373_ _026_ net44 a[1] _076_ VDD VSS AOI21_X2
X_374_ net45 _223_ _077_ VDD VSS NAND2_X1
X_375_ _077_ _076_ net46 _078_ VDD VSS OAI21_X2
X_376_ net46 _034_ _079_ VDD VSS NAND2_X1
X_377_ _079_ _028_ net42 _080_ VDD VSS OAI21_X1
X_378_ _074_ _078_ _041_ _019_ _193_ _081_ VDD VSS AOI221_X1
X_379_ net49 _075_ _022_ _194_ _082_ VDD VSS OAI211_X1
X_380_ _082_ _080_ _029_ _195_ _017_ _083_ VDD VSS AOI221_X2
X_381_ net81 net139 _083_ _084_ VDD VSS NAND3_X1
X_382_ _177_ net82 _003_ VDD VSS AND2_X1
X_383_ _194_ _196_ _072_ _085_ VDD VSS OAI21_X1
X_384_ _191_ _085_ _086_ VDD VSS XNOR2_X1
X_385_ _057_ _086_ _087_ VDD VSS NOR2_X1
X_386_ _191_ _192_ _201_ _088_ VDD VSS AND3_X1
X_387_ _202_ _053_ _088_ _089_ VDD VSS NOR3_X1
X_388_ net46 _033_ _050_ _090_ VDD VSS NOR3_X1
X_389_ a[3] a[2] net44 _091_ VDD VSS MUX2_X1
X_390_ _165_ _091_ _092_ VDD VSS NAND2_X1
X_391_ _092_ _060_ _165_ _093_ VDD VSS OAI21_X1
X_392_ _030_ _049_ net42 _094_ VDD VSS AOI21_X1
X_393_ _094_ _063_ net42 _095_ VDD VSS OAI21_X1
X_394_ _090_ _093_ _041_ _023_ net41 _096_ VDD VSS AOI221_X1
X_395_ _191_ _017_ _019_ net109 _097_ VDD VSS AOI22_X1
X_396_ _095_ _096_ net110 _098_ VDD VSS NAND3_X1
X_397_ _087_ _089_ net111 _099_ VDD VSS OR3_X1
X_398_ net52 net112 net27 _004_ VDD VSS MUX2_X1
X_399_ _203_ _208_ _100_ VDD VSS NOR2_X1
X_400_ _187_ _202_ _209_ _101_ VDD VSS NOR3_X1
X_401_ _053_ _100_ _101_ _102_ VDD VSS OR3_X1
X_402_ net41 _191_ _085_ _103_ VDD VSS AOI21_X1
X_403_ _209_ _103_ _104_ VDD VSS XNOR2_X1
X_404_ _027_ net47 _163_ _105_ VDD VSS AOI21_X1
X_405_ _165_ _105_ _106_ VDD VSS AND2_X1
X_406_ _042_ _106_ _076_ net46 _107_ VDD VSS AOI211_X2
X_407_ _019_ net114 net47 _108_ VDD VSS OAI21_X1
X_408_ _108_ _022_ _207_ _109_ VDD VSS OAI21_X1
X_409_ _107_ _109_ _208_ _017_ _110_ VDD VSS AOI211_X1
X_410_ _030_ _037_ _036_ net46 _111_ VDD VSS AOI211_X1
X_411_ _168_ _040_ _112_ VDD VSS NOR2_X1
X_412_ _111_ _112_ _039_ _113_ VDD VSS AOI21_X1
X_413_ net115 _113_ _114_ VDD VSS AND2_X1
X_414_ _102_ _114_ _104_ _057_ _115_ VDD VSS OAI211_X1
X_415_ net53 net116 net27 _005_ VDD VSS MUX2_X1
X_416_ _207_ _209_ _103_ _116_ VDD VSS OAI21_X1
X_417_ _205_ _116_ _117_ VDD VSS XNOR2_X1
X_418_ _205_ net92 _118_ VDD VSS NAND2_X1
X_419_ _213_ _053_ _119_ VDD VSS NOR2_X1
X_420_ _211_ _119_ net93 _100_ _120_ VDD VSS OAI211_X1
X_421_ _221_ _014_ _166_ _171_ _121_ VDD VSS AOI211_X2
X_422_ _121_ _017_ _205_ _204_ _023_ _122_ VDD VSS AOI221_X2
X_423_ net32 _168_ _040_ _060_ _123_ VDD VSS OR4_X1
X_424_ _122_ _123_ _124_ VDD VSS NAND2_X1
X_425_ _048_ net47 net35 _125_ VDD VSS AOI21_X2
X_426_ _165_ _091_ _126_ VDD VSS NOR2_X1
X_427_ _042_ _126_ _125_ _165_ _127_ VDD VSS AOI211_X2
X_428_ _124_ _127_ _029_ _052_ _128_ VDD VSS AOI211_X2
X_429_ net94 _128_ _057_ _117_ _129_ VDD VSS OAI211_X1
X_430_ net95 _130_ VDD VSS INV_X1
X_431_ _176_ net96 net27 _006_ VDD VSS AOI21_X1
X_432_ _204_ _205_ _116_ _131_ VDD VSS AOI21_X1
X_433_ _186_ _131_ _132_ VDD VSS OR2_X1
X_434_ _057_ _131_ _186_ _133_ VDD VSS AOI21_X1
X_435_ net40 _211_ net142 _134_ VDD VSS NAND3_X1
X_436_ _215_ _053_ _135_ VDD VSS NOR2_X1
X_437_ net46 _030_ _036_ _136_ VDD VSS NOR3_X1
X_438_ _184_ _022_ _137_ VDD VSS NOR2_X1
X_439_ _136_ _017_ net40 _138_ VDD VSS AOI21_X1
X_440_ a[6] a[5] net35 _139_ VDD VSS MUX2_X1
X_441_ net42 _105_ _140_ VDD VSS NAND2_X1
X_442_ _041_ _140_ _139_ net99 _141_ VDD VSS OAI211_X1
X_443_ _137_ _112_ _078_ _183_ _019_ _142_ VDD VSS AOI221_X2
X_444_ _138_ net100 _142_ _143_ VDD VSS NAND3_X1
X_445_ net101 _135_ _134_ _132_ _133_ _144_ VDD VSS AOI221_X2
X_446_ _176_ net102 net27 _007_ VDD VSS AOI21_X1
X_447_ _181_ _184_ _132_ _145_ VDD VSS AOI21_X1
X_448_ _181_ _184_ _132_ _146_ VDD VSS AND3_X1
X_449_ _057_ _145_ _147_ VDD VSS OR2_X1
X_450_ _180_ _216_ _148_ VDD VSS XNOR2_X1
X_451_ net46 _050_ _042_ _030_ _149_ VDD VSS AOI211_X1
X_452_ net42 a[6] net35 _150_ VDD VSS AOI21_X1
X_453_ _042_ _150_ _125_ net33 _151_ VDD VSS AOI211_X1
X_454_ _093_ _112_ _152_ VDD VSS AND2_X1
X_455_ _019_ net65 net84 _153_ VDD VSS OAI21_X1
X_456_ net85 _022_ _179_ _154_ VDD VSS OAI21_X1
X_457_ _149_ _151_ net86 _155_ VDD VSS OR3_X1
X_458_ _152_ net87 _180_ _017_ _156_ VDD VSS AOI211_X2
X_459_ net88 _147_ _146_ _053_ _148_ _157_ VDD VSS OAI221_X1
X_460_ net54 net89 net27 _008_ VDD VSS MUX2_X1
X_461_ net82 net112 _115_ net95 _158_ VDD VSS NOR4_X1
X_462_ net78 net72 net102 _158_ _159_ VDD VSS NAND4_X1
X_463_ _175_ net27 net89 _159_ _009_ VDD VSS OAI22_X1
X_464_ _145_ net65 net48 _160_ VDD VSS AOI21_X1
X_465_ net49 _219_ _053_ _057_ net66 _161_ VDD VSS OAI221_X1
X_466_ _177_ net67 _010_ VDD VSS AND2_X1
X_467_ net79 clknet_1_1__leaf_clk net61 _238_ VDD VSS DFF_X2
X_468_ net73 clknet_1_1__leaf_clk net62 _237_ VDD VSS DFF_X2
X_469_ net83 clknet_1_1__leaf_clk net63 _236_ VDD VSS DFF_X2
X_470_ net113 clknet_1_0__leaf_clk net57 _235_ VDD VSS DFF_X2
X_471_ _005_ clknet_1_0__leaf_clk net55 _234_ VDD VSS DFF_X2
X_472_ net97 clknet_1_0__leaf_clk net58 _233_ VDD VSS DFF_X2
X_473_ net103 clknet_1_0__leaf_clk net60 _232_ VDD VSS DFF_X2
X_474_ _008_ clknet_1_0__leaf_clk net59 _231_ VDD VSS DFF_X2
X_475_ net90 clknet_1_0__leaf_clk net56 _230_ VDD VSS DFF_X2
X_476_ net68 clknet_1_1__leaf_clk net64 _229_ VDD VSS DFF_X2
Xclkbuf_0_clk clk clknet_0_clk _unconnected_0 _unconnected_1
+ CLKBUF_X3
XTAP_EDGE_ROW_0_Right_0 VDD VSS TAPCELL_X1
XTAP_EDGE_ROW_1_Right_1 VDD VSS TAPCELL_X1
XTAP_EDGE_ROW_2_Right_2 VDD VSS TAPCELL_X1
XTAP_EDGE_ROW_3_Right_3 VDD VSS TAPCELL_X1
XTAP_EDGE_ROW_4_Right_4 VDD VSS TAPCELL_X1
XTAP_EDGE_ROW_5_Right_5 VDD VSS TAPCELL_X1
XTAP_EDGE_ROW_6_Right_6 VDD VSS TAPCELL_X1
XTAP_EDGE_ROW_7_Right_7 VDD VSS TAPCELL_X1
XTAP_EDGE_ROW_8_Right_8 VDD VSS TAPCELL_X1
XTAP_EDGE_ROW_9_Right_9 VDD VSS TAPCELL_X1
XTAP_EDGE_ROW_10_Right_10 VDD VSS TAPCELL_X1
XTAP_EDGE_ROW_11_Right_11 VDD VSS TAPCELL_X1
XTAP_EDGE_ROW_12_Right_12 VDD VSS TAPCELL_X1
XTAP_EDGE_ROW_13_Right_13 VDD VSS TAPCELL_X1
XTAP_EDGE_ROW_14_Right_14 VDD VSS TAPCELL_X1
XTAP_EDGE_ROW_15_Right_15 VDD VSS TAPCELL_X1
XTAP_EDGE_ROW_16_Right_16 VDD VSS TAPCELL_X1
XTAP_EDGE_ROW_17_Right_17 VDD VSS TAPCELL_X1
XTAP_EDGE_ROW_18_Right_18 VDD VSS TAPCELL_X1
XTAP_EDGE_ROW_19_Right_19 VDD VSS TAPCELL_X1
XTAP_EDGE_ROW_20_Right_20 VDD VSS TAPCELL_X1
XTAP_EDGE_ROW_21_Right_21 VDD VSS TAPCELL_X1
XTAP_EDGE_ROW_22_Right_22 VDD VSS TAPCELL_X1
XTAP_EDGE_ROW_23_Right_23 VDD VSS TAPCELL_X1
XTAP_EDGE_ROW_24_Right_24 VDD VSS TAPCELL_X1
XTAP_EDGE_ROW_25_Right_25 VDD VSS TAPCELL_X1
XTAP_EDGE_ROW_26_Right_26 VDD VSS TAPCELL_X1
XTAP_EDGE_ROW_27_Right_27 VDD VSS TAPCELL_X1
XTAP_EDGE_ROW_28_Right_28 VDD VSS TAPCELL_X1
XTAP_EDGE_ROW_29_Right_29 VDD VSS TAPCELL_X1
XTAP_EDGE_ROW_30_Right_30 VDD VSS TAPCELL_X1
XTAP_EDGE_ROW_31_Right_31 VDD VSS TAPCELL_X1
XTAP_EDGE_ROW_32_Right_32 VDD VSS TAPCELL_X1
XTAP_EDGE_ROW_33_Right_33 VDD VSS TAPCELL_X1
XTAP_EDGE_ROW_0_Left_34 VDD VSS TAPCELL_X1
XTAP_EDGE_ROW_1_Left_35 VDD VSS TAPCELL_X1
XTAP_EDGE_ROW_2_Left_36 VDD VSS TAPCELL_X1
XTAP_EDGE_ROW_3_Left_37 VDD VSS TAPCELL_X1
XTAP_EDGE_ROW_4_Left_38 VDD VSS TAPCELL_X1
XTAP_EDGE_ROW_5_Left_39 VDD VSS TAPCELL_X1
XTAP_EDGE_ROW_6_Left_40 VDD VSS TAPCELL_X1
XTAP_EDGE_ROW_7_Left_41 VDD VSS TAPCELL_X1
XTAP_EDGE_ROW_8_Left_42 VDD VSS TAPCELL_X1
XTAP_EDGE_ROW_9_Left_43 VDD VSS TAPCELL_X1
XTAP_EDGE_ROW_10_Left_44 VDD VSS TAPCELL_X1
XTAP_EDGE_ROW_11_Left_45 VDD VSS TAPCELL_X1
XTAP_EDGE_ROW_12_Left_46 VDD VSS TAPCELL_X1
XTAP_EDGE_ROW_13_Left_47 VDD VSS TAPCELL_X1
XTAP_EDGE_ROW_14_Left_48 VDD VSS TAPCELL_X1
XTAP_EDGE_ROW_15_Left_49 VDD VSS TAPCELL_X1
XTAP_EDGE_ROW_16_Left_50 VDD VSS TAPCELL_X1
XTAP_EDGE_ROW_17_Left_51 VDD VSS TAPCELL_X1
XTAP_EDGE_ROW_18_Left_52 VDD VSS TAPCELL_X1
XTAP_EDGE_ROW_19_Left_53 VDD VSS TAPCELL_X1
XTAP_EDGE_ROW_20_Left_54 VDD VSS TAPCELL_X1
XTAP_EDGE_ROW_21_Left_55 VDD VSS TAPCELL_X1
XTAP_EDGE_ROW_22_Left_56 VDD VSS TAPCELL_X1
XTAP_EDGE_ROW_23_Left_57 VDD VSS TAPCELL_X1
XTAP_EDGE_ROW_24_Left_58 VDD VSS TAPCELL_X1
XTAP_EDGE_ROW_25_Left_59 VDD VSS TAPCELL_X1
XTAP_EDGE_ROW_26_Left_60 VDD VSS TAPCELL_X1
XTAP_EDGE_ROW_27_Left_61 VDD VSS TAPCELL_X1
XTAP_EDGE_ROW_28_Left_62 VDD VSS TAPCELL_X1
XTAP_EDGE_ROW_29_Left_63 VDD VSS TAPCELL_X1
XTAP_EDGE_ROW_30_Left_64 VDD VSS TAPCELL_X1
XTAP_EDGE_ROW_31_Left_65 VDD VSS TAPCELL_X1
XTAP_EDGE_ROW_32_Left_66 VDD VSS TAPCELL_X1
XTAP_EDGE_ROW_33_Left_67 VDD VSS TAPCELL_X1
XTAP_TAPCELL_ROW_0_68 VDD VSS TAPCELL_X1
XTAP_TAPCELL_ROW_0_69 VDD VSS TAPCELL_X1
XTAP_TAPCELL_ROW_0_70 VDD VSS TAPCELL_X1
XTAP_TAPCELL_ROW_1_71 VDD VSS TAPCELL_X1
XTAP_TAPCELL_ROW_2_72 VDD VSS TAPCELL_X1
XTAP_TAPCELL_ROW_2_73 VDD VSS TAPCELL_X1
XTAP_TAPCELL_ROW_3_74 VDD VSS TAPCELL_X1
XTAP_TAPCELL_ROW_4_75 VDD VSS TAPCELL_X1
XTAP_TAPCELL_ROW_4_76 VDD VSS TAPCELL_X1
XTAP_TAPCELL_ROW_5_77 VDD VSS TAPCELL_X1
XTAP_TAPCELL_ROW_6_78 VDD VSS TAPCELL_X1
XTAP_TAPCELL_ROW_6_79 VDD VSS TAPCELL_X1
XTAP_TAPCELL_ROW_7_80 VDD VSS TAPCELL_X1
XTAP_TAPCELL_ROW_8_81 VDD VSS TAPCELL_X1
XTAP_TAPCELL_ROW_8_82 VDD VSS TAPCELL_X1
XTAP_TAPCELL_ROW_9_83 VDD VSS TAPCELL_X1
XTAP_TAPCELL_ROW_10_84 VDD VSS TAPCELL_X1
XTAP_TAPCELL_ROW_10_85 VDD VSS TAPCELL_X1
XTAP_TAPCELL_ROW_11_86 VDD VSS TAPCELL_X1
XTAP_TAPCELL_ROW_12_87 VDD VSS TAPCELL_X1
XTAP_TAPCELL_ROW_12_88 VDD VSS TAPCELL_X1
XTAP_TAPCELL_ROW_13_89 VDD VSS TAPCELL_X1
XTAP_TAPCELL_ROW_14_90 VDD VSS TAPCELL_X1
XTAP_TAPCELL_ROW_14_91 VDD VSS TAPCELL_X1
XTAP_TAPCELL_ROW_15_92 VDD VSS TAPCELL_X1
XTAP_TAPCELL_ROW_16_93 VDD VSS TAPCELL_X1
XTAP_TAPCELL_ROW_16_94 VDD VSS TAPCELL_X1
XTAP_TAPCELL_ROW_17_95 VDD VSS TAPCELL_X1
XTAP_TAPCELL_ROW_18_96 VDD VSS TAPCELL_X1
XTAP_TAPCELL_ROW_18_97 VDD VSS TAPCELL_X1
XTAP_TAPCELL_ROW_19_98 VDD VSS TAPCELL_X1
XTAP_TAPCELL_ROW_20_99 VDD VSS TAPCELL_X1
XTAP_TAPCELL_ROW_20_100 VDD VSS TAPCELL_X1
XTAP_TAPCELL_ROW_21_101 VDD VSS TAPCELL_X1
XTAP_TAPCELL_ROW_22_102 VDD VSS TAPCELL_X1
XTAP_TAPCELL_ROW_22_103 VDD VSS TAPCELL_X1
XTAP_TAPCELL_ROW_23_104 VDD VSS TAPCELL_X1
XTAP_TAPCELL_ROW_24_105 VDD VSS TAPCELL_X1
XTAP_TAPCELL_ROW_24_106 VDD VSS TAPCELL_X1
XTAP_TAPCELL_ROW_25_107 VDD VSS TAPCELL_X1
XTAP_TAPCELL_ROW_26_108 VDD VSS TAPCELL_X1
XTAP_TAPCELL_ROW_26_109 VDD VSS TAPCELL_X1
XTAP_TAPCELL_ROW_27_110 VDD VSS TAPCELL_X1
XTAP_TAPCELL_ROW_28_111 VDD VSS TAPCELL_X1
XTAP_TAPCELL_ROW_28_112 VDD VSS TAPCELL_X1
XTAP_TAPCELL_ROW_29_113 VDD VSS TAPCELL_X1
XTAP_TAPCELL_ROW_30_114 VDD VSS TAPCELL_X1
XTAP_TAPCELL_ROW_30_115 VDD VSS TAPCELL_X1
XTAP_TAPCELL_ROW_31_116 VDD VSS TAPCELL_X1
XTAP_TAPCELL_ROW_32_117 VDD VSS TAPCELL_X1
XTAP_TAPCELL_ROW_32_118 VDD VSS TAPCELL_X1
XTAP_TAPCELL_ROW_33_119 VDD VSS TAPCELL_X1
XTAP_TAPCELL_ROW_33_120 VDD VSS TAPCELL_X1
XTAP_TAPCELL_ROW_33_121 VDD VSS TAPCELL_X1
Xfanout27 net49 net27 _unconnected_2 _unconnected_3 BUF_X2
Xfanout28 rst_n net28 _unconnected_4 _unconnected_5 BUF_X1
Xfanout29 net46 net29 _unconnected_6 _unconnected_7 BUF_X2
Xfanout30 net33 net30 _unconnected_8 _unconnected_9 BUF_X1
Xfanout31 net33 net31 _unconnected_10 _unconnected_11 BUF_X1
Xfanout32 net33 net32 _unconnected_12 _unconnected_13 BUF_X1
Xfanout33 net98 net33 _unconnected_14 _unconnected_15 BUF_X1
Xfanout34 net37 net34 _unconnected_16 _unconnected_17 BUF_X1
Xfanout35 net37 net35 _unconnected_18 _unconnected_19 CLKBUF_X2
Xfanout36 net37 net36 _unconnected_20 _unconnected_21 BUF_X2
Xfanout37 b[0] net37 _unconnected_22 _unconnected_23 BUF_X1
Xfanout38 net84 net38 _unconnected_24 _unconnected_25 BUF_X1
Xfanout39 net91 net39 _unconnected_26 _unconnected_27 BUF_X1
Xgain40 _185_ net40 _unconnected_28 _unconnected_29 BUF_X2
Xgain41 _188_ net41 _unconnected_30 _unconnected_31 BUF_X2
Xgain42 net29 net42 _unconnected_32 _unconnected_33 BUF_X4
Xgain43 net36 net43 _unconnected_34 _unconnected_35 BUF_X4
Xgain44 net34 net44 _unconnected_36 _unconnected_37 BUF_X4
Xgain45 net31 net45 _unconnected_38 _unconnected_39 BUF_X4
Xgain46 net30 net46 _unconnected_40 _unconnected_41 BUF_X4
Xgain47 net39 net47 _unconnected_42 _unconnected_43 BUF_X4
Xgain48 net38 net48 _unconnected_44 _unconnected_45 BUF_X4
Xgain49 net28 net49 _unconnected_46 _unconnected_47 BUF_X2
X_252__50 net50 _unconnected_48 _unconnected_49 LOGIC0_X1
X_253__51 net51 _unconnected_50 _unconnected_51 LOGIC0_X1
X_398__52 net52 _unconnected_52 _unconnected_53 LOGIC0_X1
X_415__53 net53 _unconnected_54 _unconnected_55 LOGIC0_X1
X_460__54 net54 _unconnected_56 _unconnected_57 LOGIC0_X1
Xclkbuf_1_0__f_clk clknet_0_clk clknet_1_0__leaf_clk _unconnected_58
+ _unconnected_59 CLKBUF_X3
Xclkbuf_1_1__f_clk clknet_0_clk clknet_1_1__leaf_clk _unconnected_60
+ _unconnected_61 CLKBUF_X3
Xhold55 net117 net118 _unconnected_62 _unconnected_63 CLKBUF_X1
Xhold56 net119 net120 _unconnected_64 _unconnected_65 CLKBUF_X1
Xhold57 net121 net122 _unconnected_66 _unconnected_67 CLKBUF_X1
Xhold58 net123 net124 _unconnected_68 _unconnected_69 CLKBUF_X1
Xhold59 net125 net126 _unconnected_70 _unconnected_71 CLKBUF_X1
Xhold60 net127 net128 _unconnected_72 _unconnected_73 CLKBUF_X1
Xhold61 net129 net130 _unconnected_74 _unconnected_75 CLKBUF_X1
Xhold62 net131 net132 _unconnected_76 _unconnected_77 CLKBUF_X1
Xhold63 net133 net134 _unconnected_78 _unconnected_79 CLKBUF_X1
Xhold64 net135 net136 _unconnected_80 _unconnected_81 CLKBUF_X1
Xhold65 b[7] net65 _unconnected_82 _unconnected_83 CLKBUF_X1
Xhold66 _160_ net66 _unconnected_84 _unconnected_85 CLKBUF_X1
Xhold67 _161_ net67 _unconnected_86 _unconnected_87 CLKBUF_X1
Xhold68 _010_ net68 _unconnected_88 _unconnected_89 CLKBUF_X1
Xhold69 opcode[2] net69 _unconnected_90 _unconnected_91 CLKBUF_X1
Xhold70 _220_ net70 _unconnected_92 _unconnected_93 CLKBUF_X1
Xhold71 _222_ net71 _unconnected_94 _unconnected_95 CLKBUF_X1
Xhold72 _069_ net72 _unconnected_96 _unconnected_97 CLKBUF_X1
Xhold73 _002_ net73 _unconnected_98 _unconnected_99 CLKBUF_X1
Xhold74 a[0] net74 _unconnected_100 _unconnected_101 CLKBUF_X1
Xhold75 _225_ net75 _unconnected_102 _unconnected_103 CLKBUF_X1
Xhold76 _018_ net76 _unconnected_104 _unconnected_105 CLKBUF_X1
Xhold77 _024_ net77 _unconnected_106 _unconnected_107 CLKBUF_X1
Xhold78 _045_ net78 _unconnected_108 _unconnected_109 CLKBUF_X1
Xhold79 _001_ net79 _unconnected_110 _unconnected_111 CLKBUF_X1
Xhold80 opcode[0] net80 _unconnected_112 _unconnected_113
+ CLKBUF_X1
Xhold81 _071_ net81 _unconnected_114 _unconnected_115 CLKBUF_X1
Xhold82 net140 net82 _unconnected_116 _unconnected_117 CLKBUF_X1
Xhold83 _003_ net83 _unconnected_118 _unconnected_119 CLKBUF_X1
Xhold84 a[7] net84 _unconnected_120 _unconnected_121 CLKBUF_X1
Xhold85 _153_ net85 _unconnected_122 _unconnected_123 CLKBUF_X1
Xhold86 _154_ net86 _unconnected_124 _unconnected_125 CLKBUF_X1
Xhold87 _155_ net87 _unconnected_126 _unconnected_127 CLKBUF_X1
Xhold88 _156_ net88 _unconnected_128 _unconnected_129 CLKBUF_X1
Xhold89 net106 net89 _unconnected_130 _unconnected_131 CLKBUF_X1
Xhold90 _009_ net90 _unconnected_132 _unconnected_133 CLKBUF_X1
Xhold91 a[4] net91 _unconnected_134 _unconnected_135 CLKBUF_X1
Xhold92 _212_ net92 _unconnected_136 _unconnected_137 CLKBUF_X1
Xhold93 _118_ net93 _unconnected_138 _unconnected_139 CLKBUF_X1
Xhold94 _120_ net94 _unconnected_140 _unconnected_141 CLKBUF_X1
Xhold95 _129_ net95 _unconnected_142 _unconnected_143 CLKBUF_X1
Xhold96 _130_ net96 _unconnected_144 _unconnected_145 CLKBUF_X1
Xhold97 _006_ net97 _unconnected_146 _unconnected_147 CLKBUF_X1
Xhold98 b[1] net98 _unconnected_148 _unconnected_149 CLKBUF_X1
Xhold99 net33 net99 _unconnected_150 _unconnected_151 CLKBUF_X1
Xhold100 _141_ net100 _unconnected_152 _unconnected_153 CLKBUF_X1
Xhold101 _143_ net101 _unconnected_154 _unconnected_155 CLKBUF_X1
Xhold102 net143 net102 _unconnected_156 _unconnected_157 CLKBUF_X1
Xhold103 _007_ net103 _unconnected_158 _unconnected_159 CLKBUF_X1
Xhold104 b[6] net104 _unconnected_160 _unconnected_161 CLKBUF_X1
Xhold105 _182_ net105 _unconnected_162 _unconnected_163 CLKBUF_X1
Xhold106 _157_ net106 _unconnected_164 _unconnected_165 CLKBUF_X1
Xhold107 a[3] net107 _unconnected_166 _unconnected_167 CLKBUF_X1
Xhold108 _189_ net108 _unconnected_168 _unconnected_169 CLKBUF_X1
Xhold109 _190_ net109 _unconnected_170 _unconnected_171 CLKBUF_X1
Xhold110 _097_ net110 _unconnected_172 _unconnected_173 CLKBUF_X1
Xhold111 _098_ net111 _unconnected_174 _unconnected_175 CLKBUF_X1
Xhold112 _099_ net112 _unconnected_176 _unconnected_177 CLKBUF_X1
Xhold113 _004_ net113 _unconnected_178 _unconnected_179 CLKBUF_X1
Xhold114 b[4] net114 _unconnected_180 _unconnected_181 CLKBUF_X1
Xhold115 _110_ net115 _unconnected_182 _unconnected_183 CLKBUF_X1
Xhold116 _115_ net116 _unconnected_184 _unconnected_185 CLKBUF_X1
Xhold117 net145 net117 _unconnected_186 _unconnected_187 CLKBUF_X1
Xhold118 net118 result[4] _unconnected_188 _unconnected_189
+ CLKBUF_X1
Xhold119 net146 net119 _unconnected_190 _unconnected_191 CLKBUF_X1
Xhold120 net120 zero_flag _unconnected_192 _unconnected_193
+ CLKBUF_X1
Xhold121 net147 net121 _unconnected_194 _unconnected_195 CLKBUF_X1
Xhold122 net122 result[3] _unconnected_196 _unconnected_197
+ CLKBUF_X1
Xhold123 net149 net123 _unconnected_198 _unconnected_199 CLKBUF_X1
Xhold124 net124 result[5] _unconnected_200 _unconnected_201
+ CLKBUF_X1
Xhold125 net148 net125 _unconnected_202 _unconnected_203 CLKBUF_X1
Xhold126 net126 result[7] _unconnected_204 _unconnected_205
+ CLKBUF_X1
Xhold127 net150 net127 _unconnected_206 _unconnected_207 CLKBUF_X1
Xhold128 net128 result[6] _unconnected_208 _unconnected_209
+ CLKBUF_X1
Xhold129 net151 net129 _unconnected_210 _unconnected_211 CLKBUF_X1
Xhold130 net130 result[0] _unconnected_212 _unconnected_213
+ CLKBUF_X1
Xhold131 net152 net131 _unconnected_214 _unconnected_215 CLKBUF_X1
Xhold132 net132 result[1] _unconnected_216 _unconnected_217
+ CLKBUF_X1
Xhold133 net153 net133 _unconnected_218 _unconnected_219 CLKBUF_X1
Xhold134 net134 result[2] _unconnected_220 _unconnected_221
+ CLKBUF_X1
Xhold135 net154 net135 _unconnected_222 _unconnected_223 CLKBUF_X1
Xhold136 net136 overflow_flag _unconnected_224 _unconnected_225
+ CLKBUF_X1
Xhold137 opcode[0] net137 _unconnected_226 _unconnected_227
+ CLKBUF_X1
Xhold138 a[2] net138 _unconnected_228 _unconnected_229 CLKBUF_X1
Xhold139 _081_ net139 _unconnected_230 _unconnected_231 CLKBUF_X1
Xhold140 _084_ net140 _unconnected_232 _unconnected_233 CLKBUF_X1
Xhold141 a[5] net141 _unconnected_234 _unconnected_235 CLKBUF_X1
Xhold142 _214_ net142 _unconnected_236 _unconnected_237 CLKBUF_X1
Xhold143 _144_ net143 _unconnected_238 _unconnected_239 CLKBUF_X1
Xhold144 opcode[3] net144 _unconnected_240 _unconnected_241
+ CLKBUF_X1
Xhold145 net55 net145 _unconnected_242 _unconnected_243 CLKBUF_X1
Xhold146 net56 net146 _unconnected_244 _unconnected_245 CLKBUF_X1
Xhold147 net57 net147 _unconnected_246 _unconnected_247 CLKBUF_X1
Xhold148 net59 net148 _unconnected_248 _unconnected_249 CLKBUF_X1
Xhold149 net58 net149 _unconnected_250 _unconnected_251 CLKBUF_X1
Xhold150 net60 net150 _unconnected_252 _unconnected_253 CLKBUF_X1
Xhold151 net61 net151 _unconnected_254 _unconnected_255 CLKBUF_X1
Xhold152 net62 net152 _unconnected_256 _unconnected_257 CLKBUF_X1
Xhold153 net63 net153 _unconnected_258 _unconnected_259 CLKBUF_X1
Xhold154 net64 net154 _unconnected_260 _unconnected_261 CLKBUF_X1
XFILLER_0_65 _unconnected_262 _unconnected_263 FILLCELL_X8
XFILLER_0_77 _unconnected_264 _unconnected_265 FILLCELL_X1
XFILLER_0_143 _unconnected_266 _unconnected_267 FILLCELL_X8
XFILLER_0_155 _unconnected_268 _unconnected_269 FILLCELL_X1
XFILLER_0_221 _unconnected_270 _unconnected_271 FILLCELL_X8
XFILLER_0_233 _unconnected_272 _unconnected_273 FILLCELL_X1
XFILLER_0_251 _unconnected_274 _unconnected_275 FILLCELL_X8
XFILLER_1_145 _unconnected_276 _unconnected_277 FILLCELL_X8
XFILLER_1_260 _unconnected_278 _unconnected_279 FILLCELL_X1
XFILLER_2_65 _unconnected_280 _unconnected_281 FILLCELL_X8
XFILLER_2_77 _unconnected_282 _unconnected_283 FILLCELL_X1
XFILLER_2_223 _unconnected_284 _unconnected_285 FILLCELL_X8
XFILLER_2_252 _unconnected_286 _unconnected_287 FILLCELL_X8
XFILLER_2_260 _unconnected_288 _unconnected_289 FILLCELL_X1
XFILLER_3_145 _unconnected_290 _unconnected_291 FILLCELL_X8
XFILLER_3_260 _unconnected_292 _unconnected_293 FILLCELL_X1
XFILLER_4_65 _unconnected_294 _unconnected_295 FILLCELL_X8
XFILLER_4_77 _unconnected_296 _unconnected_297 FILLCELL_X1
XFILLER_4_223 _unconnected_298 _unconnected_299 FILLCELL_X8
XFILLER_4_252 _unconnected_300 _unconnected_301 FILLCELL_X8
XFILLER_4_260 _unconnected_302 _unconnected_303 FILLCELL_X1
XFILLER_5_145 _unconnected_304 _unconnected_305 FILLCELL_X8
XFILLER_5_260 _unconnected_306 _unconnected_307 FILLCELL_X1
XFILLER_6_65 _unconnected_308 _unconnected_309 FILLCELL_X8
XFILLER_6_77 _unconnected_310 _unconnected_311 FILLCELL_X1
XFILLER_6_223 _unconnected_312 _unconnected_313 FILLCELL_X8
XFILLER_6_252 _unconnected_314 _unconnected_315 FILLCELL_X8
XFILLER_6_260 _unconnected_316 _unconnected_317 FILLCELL_X1
XFILLER_7_145 _unconnected_318 _unconnected_319 FILLCELL_X8
XFILLER_7_260 _unconnected_320 _unconnected_321 FILLCELL_X1
XFILLER_8_65 _unconnected_322 _unconnected_323 FILLCELL_X8
XFILLER_8_77 _unconnected_324 _unconnected_325 FILLCELL_X1
XFILLER_8_223 _unconnected_326 _unconnected_327 FILLCELL_X8
XFILLER_8_252 _unconnected_328 _unconnected_329 FILLCELL_X8
XFILLER_8_260 _unconnected_330 _unconnected_331 FILLCELL_X1
XFILLER_9_81 _unconnected_332 _unconnected_333 FILLCELL_X8
XFILLER_9_95 _unconnected_334 _unconnected_335 FILLCELL_X8
XFILLER_9_107 _unconnected_336 _unconnected_337 FILLCELL_X1
XFILLER_9_117 _unconnected_338 _unconnected_339 FILLCELL_X1
XFILLER_9_143 _unconnected_340 _unconnected_341 FILLCELL_X8
XFILLER_9_260 _unconnected_342 _unconnected_343 FILLCELL_X1
XFILLER_10_65 _unconnected_344 _unconnected_345 FILLCELL_X8
XFILLER_10_77 _unconnected_346 _unconnected_347 FILLCELL_X1
XFILLER_10_252 _unconnected_348 _unconnected_349 FILLCELL_X8
XFILLER_10_260 _unconnected_350 _unconnected_351 FILLCELL_X1
XFILLER_11_33 _unconnected_352 _unconnected_353 FILLCELL_X8
XFILLER_11_48 _unconnected_354 _unconnected_355 FILLCELL_X8
XFILLER_11_86 _unconnected_356 _unconnected_357 FILLCELL_X8
XFILLER_11_100 _unconnected_358 _unconnected_359 FILLCELL_X1
XFILLER_11_108 _unconnected_360 _unconnected_361 FILLCELL_X1
XFILLER_11_260 _unconnected_362 _unconnected_363 FILLCELL_X1
XFILLER_12_17 _unconnected_364 _unconnected_365 FILLCELL_X8
XFILLER_12_31 _unconnected_366 _unconnected_367 FILLCELL_X1
XFILLER_12_115 _unconnected_368 _unconnected_369 FILLCELL_X1
XFILLER_12_124 _unconnected_370 _unconnected_371 FILLCELL_X1
XFILLER_12_128 _unconnected_372 _unconnected_373 FILLCELL_X8
XFILLER_12_138 _unconnected_374 _unconnected_375 FILLCELL_X1
XFILLER_12_252 _unconnected_376 _unconnected_377 FILLCELL_X8
XFILLER_12_260 _unconnected_378 _unconnected_379 FILLCELL_X1
XFILLER_13_1 _unconnected_380 _unconnected_381 FILLCELL_X8
XFILLER_13_22 _unconnected_382 _unconnected_383 FILLCELL_X1
XFILLER_13_33 _unconnected_384 _unconnected_385 FILLCELL_X1
XFILLER_13_44 _unconnected_386 _unconnected_387 FILLCELL_X1
XFILLER_13_68 _unconnected_388 _unconnected_389 FILLCELL_X1
XFILLER_13_72 _unconnected_390 _unconnected_391 FILLCELL_X8
XFILLER_13_95 _unconnected_392 _unconnected_393 FILLCELL_X1
XFILLER_13_100 _unconnected_394 _unconnected_395 FILLCELL_X8
XFILLER_13_116 _unconnected_396 _unconnected_397 FILLCELL_X1
XFILLER_13_126 _unconnected_398 _unconnected_399 FILLCELL_X1
XFILLER_13_134 _unconnected_400 _unconnected_401 FILLCELL_X1
XFILLER_14_1 _unconnected_402 _unconnected_403 FILLCELL_X8
XFILLER_14_9 _unconnected_404 _unconnected_405 FILLCELL_X1
XFILLER_14_15 _unconnected_406 _unconnected_407 FILLCELL_X1
XFILLER_14_27 _unconnected_408 _unconnected_409 FILLCELL_X8
XFILLER_14_45 _unconnected_410 _unconnected_411 FILLCELL_X1
XFILLER_14_66 _unconnected_412 _unconnected_413 FILLCELL_X8
XFILLER_14_112 _unconnected_414 _unconnected_415 FILLCELL_X1
XFILLER_14_123 _unconnected_416 _unconnected_417 FILLCELL_X1
XFILLER_14_252 _unconnected_418 _unconnected_419 FILLCELL_X8
XFILLER_14_260 _unconnected_420 _unconnected_421 FILLCELL_X1
XFILLER_15_4 _unconnected_422 _unconnected_423 FILLCELL_X1